* File: sky130_fd_sc_lp__srsdfrtn_1.pex.spice
* Created: Wed Sep  2 10:39:07 2020
* Program "Calibre xRC"
* Version "v2018.4_34.26"
* Nominal Temperature: 27C
* Circuit Temperature: 27C
* 
.subckt PM_SKY130_FD_SC_LP__SRSDFRTN_1%SCE 3 7 9 11 15 17 19 21 23 24 25 29
c57 7 0 1.2623e-20 $X=0.66 $Y=2.775
r58 24 25 14.1436 $w=3.28e-07 $l=4.05e-07 $layer=LI1_cond $X=0.75 $Y=1.26
+ $X2=0.75 $Y2=1.665
r59 24 29 72.64 $w=1.7e-07 $l=3.4e-07 $layer=licon1_POLY $count=2 $X=0.75
+ $Y=1.26 $X2=0.75 $Y2=1.26
r60 22 29 62.0758 $w=3.3e-07 $l=3.55e-07 $layer=POLY_cond $X=0.75 $Y=1.615
+ $X2=0.75 $Y2=1.26
r61 22 23 13.5877 $w=2.4e-07 $l=7.5e-08 $layer=POLY_cond $X=0.75 $Y=1.615
+ $X2=0.75 $Y2=1.69
r62 20 29 16.6118 $w=3.3e-07 $l=9.5e-08 $layer=POLY_cond $X=0.75 $Y=1.165
+ $X2=0.75 $Y2=1.26
r63 20 21 13.5877 $w=2.4e-07 $l=1.19766e-07 $layer=POLY_cond $X=0.75 $Y=1.165
+ $X2=0.662 $Y2=1.09
r64 17 19 102.827 $w=1.5e-07 $l=3.2e-07 $layer=POLY_cond $X=1.45 $Y=1.015
+ $X2=1.45 $Y2=0.695
r65 13 15 517.894 $w=1.5e-07 $l=1.01e-06 $layer=POLY_cond $X=1.16 $Y=1.765
+ $X2=1.16 $Y2=2.775
r66 12 23 12.1617 $w=1.5e-07 $l=1.65e-07 $layer=POLY_cond $X=0.915 $Y=1.69
+ $X2=0.75 $Y2=1.69
r67 11 13 26.9307 $w=1.5e-07 $l=1.06066e-07 $layer=POLY_cond $X=1.085 $Y=1.69
+ $X2=1.16 $Y2=1.765
r68 11 12 87.1702 $w=1.5e-07 $l=1.7e-07 $layer=POLY_cond $X=1.085 $Y=1.69
+ $X2=0.915 $Y2=1.69
r69 10 21 12.1617 $w=1.5e-07 $l=2.53e-07 $layer=POLY_cond $X=0.915 $Y=1.09
+ $X2=0.662 $Y2=1.09
r70 9 17 26.9307 $w=1.5e-07 $l=1.06066e-07 $layer=POLY_cond $X=1.375 $Y=1.09
+ $X2=1.45 $Y2=1.015
r71 9 10 235.872 $w=1.5e-07 $l=4.6e-07 $layer=POLY_cond $X=1.375 $Y=1.09
+ $X2=0.915 $Y2=1.09
r72 5 23 13.5877 $w=2.4e-07 $l=1.21861e-07 $layer=POLY_cond $X=0.66 $Y=1.765
+ $X2=0.75 $Y2=1.69
r73 5 7 517.894 $w=1.5e-07 $l=1.01e-06 $layer=POLY_cond $X=0.66 $Y=1.765
+ $X2=0.66 $Y2=2.775
r74 1 21 13.5877 $w=2.4e-07 $l=2.11197e-07 $layer=POLY_cond $X=0.485 $Y=1.015
+ $X2=0.662 $Y2=1.09
r75 1 3 271.766 $w=1.5e-07 $l=5.3e-07 $layer=POLY_cond $X=0.485 $Y=1.015
+ $X2=0.485 $Y2=0.485
.ends

.subckt PM_SKY130_FD_SC_LP__SRSDFRTN_1%D 3 7 9 11 19
c45 11 0 1.06697e-19 $X=1.68 $Y=1.665
r46 19 21 36.7238 $w=3.15e-07 $l=2.4e-07 $layer=POLY_cond $X=1.64 $Y=1.54
+ $X2=1.88 $Y2=1.54
r47 19 20 145.28 $w=1.7e-07 $l=1.7e-07 $layer=licon1_POLY $count=1 $X=1.64
+ $Y=1.54 $X2=1.64 $Y2=1.54
r48 17 19 13.7714 $w=3.15e-07 $l=9e-08 $layer=POLY_cond $X=1.55 $Y=1.54 $X2=1.64
+ $Y2=1.54
r49 11 20 0.797386 $w=5.98e-07 $l=4e-08 $layer=LI1_cond $X=1.68 $Y=1.48 $X2=1.64
+ $Y2=1.48
r50 9 20 8.77124 $w=5.98e-07 $l=4.4e-07 $layer=LI1_cond $X=1.2 $Y=1.48 $X2=1.64
+ $Y2=1.48
r51 5 21 20.1192 $w=1.5e-07 $l=1.65e-07 $layer=POLY_cond $X=1.88 $Y=1.375
+ $X2=1.88 $Y2=1.54
r52 5 7 348.681 $w=1.5e-07 $l=6.8e-07 $layer=POLY_cond $X=1.88 $Y=1.375 $X2=1.88
+ $Y2=0.695
r53 1 17 20.1192 $w=1.5e-07 $l=1.65e-07 $layer=POLY_cond $X=1.55 $Y=1.705
+ $X2=1.55 $Y2=1.54
r54 1 3 548.66 $w=1.5e-07 $l=1.07e-06 $layer=POLY_cond $X=1.55 $Y=1.705 $X2=1.55
+ $Y2=2.775
.ends

.subckt PM_SKY130_FD_SC_LP__SRSDFRTN_1%A_27_55# 1 2 7 9 12 15 18 21 25 29 31 33
c79 31 0 1.46816e-19 $X=2.14 $Y=2.11
c80 18 0 9.4074e-20 $X=2.255 $Y=1.365
c81 15 0 1.55978e-19 $X=2.27 $Y=0.695
r82 31 33 8.46218 $w=3.28e-07 $l=1.65e-07 $layer=LI1_cond $X=2.14 $Y=2.11
+ $X2=1.975 $Y2=2.11
r83 31 32 145.28 $w=1.7e-07 $l=1.7e-07 $layer=licon1_POLY $count=1 $X=2.14
+ $Y=2.11 $X2=2.14 $Y2=2.11
r84 28 29 4.32201 $w=1.7e-07 $l=2.53e-07 $layer=LI1_cond $X=0.61 $Y=2.035
+ $X2=0.357 $Y2=2.035
r85 28 33 89.0535 $w=1.68e-07 $l=1.365e-06 $layer=LI1_cond $X=0.61 $Y=2.035
+ $X2=1.975 $Y2=2.035
r86 23 29 2.55177 $w=3.77e-07 $l=8.5e-08 $layer=LI1_cond $X=0.357 $Y=2.12
+ $X2=0.357 $Y2=2.035
r87 23 25 15.0398 $w=5.03e-07 $l=6.35e-07 $layer=LI1_cond $X=0.357 $Y=2.12
+ $X2=0.357 $Y2=2.755
r88 19 29 2.55177 $w=3.77e-07 $l=1.64085e-07 $layer=LI1_cond $X=0.23 $Y=1.95
+ $X2=0.357 $Y2=2.035
r89 19 21 67.5332 $w=2.48e-07 $l=1.465e-06 $layer=LI1_cond $X=0.23 $Y=1.95
+ $X2=0.23 $Y2=0.485
r90 17 18 58.3064 $w=1.8e-07 $l=1.5e-07 $layer=POLY_cond $X=2.255 $Y=1.215
+ $X2=2.255 $Y2=1.365
r91 15 17 266.638 $w=1.5e-07 $l=5.2e-07 $layer=POLY_cond $X=2.27 $Y=0.695
+ $X2=2.27 $Y2=1.215
r92 12 32 66.1652 $w=3.14e-07 $l=4.04815e-07 $layer=POLY_cond $X=2.24 $Y=1.765
+ $X2=2.11 $Y2=2.11
r93 12 18 205.106 $w=1.5e-07 $l=4e-07 $layer=POLY_cond $X=2.24 $Y=1.765 $X2=2.24
+ $Y2=1.365
r94 7 32 38.5347 $w=3.14e-07 $l=2.20624e-07 $layer=POLY_cond $X=1.98 $Y=2.275
+ $X2=2.11 $Y2=2.11
r95 7 9 256.383 $w=1.5e-07 $l=5e-07 $layer=POLY_cond $X=1.98 $Y=2.275 $X2=1.98
+ $Y2=2.775
r96 2 25 600 $w=1.7e-07 $l=3.65377e-07 $layer=licon1_PDIFF $count=1 $X=0.3
+ $Y=2.455 $X2=0.445 $Y2=2.755
r97 1 21 182 $w=1.7e-07 $l=2.69165e-07 $layer=licon1_NDIFF $count=1 $X=0.135
+ $Y=0.275 $X2=0.27 $Y2=0.485
.ends

.subckt PM_SKY130_FD_SC_LP__SRSDFRTN_1%SCD 3 7 10 11 14 17 18
c41 11 0 1.46816e-19 $X=2.715 $Y=2.305
c42 7 0 3.39925e-20 $X=2.7 $Y=0.695
r43 17 18 72.64 $w=1.7e-07 $l=3.4e-07 $layer=licon1_POLY $count=2 $X=2.72
+ $Y=1.77 $X2=2.72 $Y2=1.77
r44 14 18 8.8521 $w=3.43e-07 $l=2.65e-07 $layer=LI1_cond $X=2.697 $Y=2.035
+ $X2=2.697 $Y2=1.77
r45 13 17 38.6168 $w=3.3e-07 $l=1.65e-07 $layer=POLY_cond $X=2.72 $Y=1.605
+ $X2=2.72 $Y2=1.77
r46 10 17 67.3216 $w=3.3e-07 $l=3.85e-07 $layer=POLY_cond $X=2.72 $Y=2.155
+ $X2=2.72 $Y2=1.77
r47 10 11 43.5886 $w=3.3e-07 $l=1.5e-07 $layer=POLY_cond $X=2.715 $Y=2.155
+ $X2=2.715 $Y2=2.305
r48 7 13 466.617 $w=1.5e-07 $l=9.1e-07 $layer=POLY_cond $X=2.7 $Y=0.695 $X2=2.7
+ $Y2=1.605
r49 3 11 241 $w=1.5e-07 $l=4.7e-07 $layer=POLY_cond $X=2.62 $Y=2.775 $X2=2.62
+ $Y2=2.305
.ends

.subckt PM_SKY130_FD_SC_LP__SRSDFRTN_1%RESET_B 1 3 6 9 13 16 18 19 22 24 25 29
+ 33 35 36 37 40 43 44 45 46 51 56
c182 45 0 1.86972e-19 $X=7.07 $Y=1.695
c183 43 0 3.9366e-21 $X=6.985 $Y=1.61
c184 37 0 2.87822e-20 $X=6.9 $Y=0.34
c185 36 0 2.70432e-19 $X=8.16 $Y=1.215
c186 33 0 1.81355e-19 $X=4.86 $Y=1.22
c187 6 0 1.41889e-19 $X=4.585 $Y=2.415
r188 50 51 145.28 $w=1.7e-07 $l=1.7e-07 $layer=licon1_POLY $count=1 $X=7.975
+ $Y=1.38 $X2=7.975 $Y2=1.38
r189 46 56 2.63384 $w=3.35e-07 $l=8.5e-08 $layer=LI1_cond $X=7.972 $Y=1.695
+ $X2=7.972 $Y2=1.61
r190 46 56 0.516019 $w=3.33e-07 $l=1.5e-08 $layer=LI1_cond $X=7.972 $Y=1.595
+ $X2=7.972 $Y2=1.61
r191 46 51 7.39628 $w=3.33e-07 $l=2.15e-07 $layer=LI1_cond $X=7.972 $Y=1.595
+ $X2=7.972 $Y2=1.38
r192 44 46 5.17472 $w=1.7e-07 $l=1.67e-07 $layer=LI1_cond $X=7.805 $Y=1.695
+ $X2=7.972 $Y2=1.695
r193 44 45 47.9519 $w=1.68e-07 $l=7.35e-07 $layer=LI1_cond $X=7.805 $Y=1.695
+ $X2=7.07 $Y2=1.695
r194 43 45 6.81649 $w=1.7e-07 $l=1.20208e-07 $layer=LI1_cond $X=6.985 $Y=1.61
+ $X2=7.07 $Y2=1.695
r195 42 43 77.3102 $w=1.68e-07 $l=1.185e-06 $layer=LI1_cond $X=6.985 $Y=0.425
+ $X2=6.985 $Y2=1.61
r196 40 55 46.2115 $w=3.3e-07 $l=1.65e-07 $layer=POLY_cond $X=4.77 $Y=0.34
+ $X2=4.77 $Y2=0.505
r197 39 40 145.28 $w=1.7e-07 $l=1.7e-07 $layer=licon1_POLY $count=1 $X=4.77
+ $Y=0.34 $X2=4.77 $Y2=0.34
r198 37 42 6.81649 $w=1.7e-07 $l=1.20208e-07 $layer=LI1_cond $X=6.9 $Y=0.34
+ $X2=6.985 $Y2=0.425
r199 37 39 138.963 $w=1.68e-07 $l=2.13e-06 $layer=LI1_cond $X=6.9 $Y=0.34
+ $X2=4.77 $Y2=0.34
r200 35 50 32.3493 $w=3.3e-07 $l=1.85e-07 $layer=POLY_cond $X=8.16 $Y=1.38
+ $X2=7.975 $Y2=1.38
r201 35 36 1.50692 $w=3.3e-07 $l=1.65e-07 $layer=POLY_cond $X=8.16 $Y=1.38
+ $X2=8.16 $Y2=1.215
r202 32 33 141.011 $w=1.5e-07 $l=2.75e-07 $layer=POLY_cond $X=4.585 $Y=1.22
+ $X2=4.86 $Y2=1.22
r203 30 32 135.883 $w=1.5e-07 $l=2.65e-07 $layer=POLY_cond $X=4.32 $Y=1.22
+ $X2=4.585 $Y2=1.22
r204 27 29 282.021 $w=1.5e-07 $l=5.5e-07 $layer=POLY_cond $X=15.825 $Y=3.075
+ $X2=15.825 $Y2=2.525
r205 26 29 492.255 $w=1.5e-07 $l=9.6e-07 $layer=POLY_cond $X=15.825 $Y=1.565
+ $X2=15.825 $Y2=2.525
r206 24 26 26.9307 $w=1.5e-07 $l=1.06066e-07 $layer=POLY_cond $X=15.75 $Y=1.49
+ $X2=15.825 $Y2=1.565
r207 24 25 89.734 $w=1.5e-07 $l=1.75e-07 $layer=POLY_cond $X=15.75 $Y=1.49
+ $X2=15.575 $Y2=1.49
r208 20 25 26.9307 $w=1.5e-07 $l=1.06066e-07 $layer=POLY_cond $X=15.5 $Y=1.415
+ $X2=15.575 $Y2=1.49
r209 20 22 364.064 $w=1.5e-07 $l=7.1e-07 $layer=POLY_cond $X=15.5 $Y=1.415
+ $X2=15.5 $Y2=0.705
r210 18 27 26.9307 $w=1.5e-07 $l=1.06066e-07 $layer=POLY_cond $X=15.75 $Y=3.15
+ $X2=15.825 $Y2=3.075
r211 18 19 3763.7 $w=1.5e-07 $l=7.34e-06 $layer=POLY_cond $X=15.75 $Y=3.15
+ $X2=8.41 $Y2=3.15
r212 14 36 30.2679 $w=2e-07 $l=1.05e-07 $layer=POLY_cond $X=8.265 $Y=1.215
+ $X2=8.16 $Y2=1.215
r213 14 16 394.83 $w=1.5e-07 $l=7.7e-07 $layer=POLY_cond $X=8.265 $Y=1.215
+ $X2=8.265 $Y2=0.445
r214 11 19 29.1797 $w=1.5e-07 $l=1.58114e-07 $layer=POLY_cond $X=8.285 $Y=3.075
+ $X2=8.41 $Y2=3.15
r215 11 13 216.155 $w=2.5e-07 $l=8.7e-07 $layer=POLY_cond $X=8.285 $Y=3.075
+ $X2=8.285 $Y2=2.205
r216 10 36 30.2679 $w=2e-07 $l=3.87492e-07 $layer=POLY_cond $X=8.285 $Y=1.545
+ $X2=8.16 $Y2=1.215
r217 10 13 163.979 $w=2.5e-07 $l=6.6e-07 $layer=POLY_cond $X=8.285 $Y=1.545
+ $X2=8.285 $Y2=2.205
r218 9 33 2.83073 $w=1.5e-07 $l=7.5e-08 $layer=POLY_cond $X=4.86 $Y=1.145
+ $X2=4.86 $Y2=1.22
r219 9 55 328.17 $w=1.5e-07 $l=6.4e-07 $layer=POLY_cond $X=4.86 $Y=1.145
+ $X2=4.86 $Y2=0.505
r220 4 32 2.83073 $w=1.5e-07 $l=7.5e-08 $layer=POLY_cond $X=4.585 $Y=1.295
+ $X2=4.585 $Y2=1.22
r221 4 6 574.298 $w=1.5e-07 $l=1.12e-06 $layer=POLY_cond $X=4.585 $Y=1.295
+ $X2=4.585 $Y2=2.415
r222 1 30 2.83073 $w=1.5e-07 $l=7.5e-08 $layer=POLY_cond $X=4.32 $Y=1.145
+ $X2=4.32 $Y2=1.22
r223 1 3 102.827 $w=1.5e-07 $l=3.2e-07 $layer=POLY_cond $X=4.32 $Y=1.145
+ $X2=4.32 $Y2=0.825
.ends

.subckt PM_SKY130_FD_SC_LP__SRSDFRTN_1%A_742_63# 1 2 9 12 13 14 18 19 24 25 27
+ 30 32 35 38 40 42 43 46 48 50 51 52 54 55 56 58 59 60 61 66 67 68 70 73 75 76
+ 78 80 82 89 91 97 99
c300 99 0 6.73578e-20 $X=13.02 $Y=1.48
c301 97 0 1.98227e-19 $X=5.5 $Y=1.77
c302 89 0 4.1238e-20 $X=12.98 $Y=1.57
c303 82 0 1.92106e-19 $X=5.215 $Y=1.77
c304 60 0 1.07616e-19 $X=9.58 $Y=2.81
c305 46 0 5.16263e-20 $X=13.74 $Y=1.1
c306 24 0 1.55617e-19 $X=5.49 $Y=2.305
r307 96 97 1.74861 $w=3.3e-07 $l=1e-08 $layer=POLY_cond $X=5.49 $Y=1.77 $X2=5.5
+ $Y2=1.77
r308 90 102 45.9078 $w=4.1e-07 $l=1.65e-07 $layer=POLY_cond $X=13.02 $Y=1.57
+ $X2=13.02 $Y2=1.735
r309 90 99 12.2083 $w=4.1e-07 $l=9e-08 $layer=POLY_cond $X=13.02 $Y=1.57
+ $X2=13.02 $Y2=1.48
r310 89 91 10.5918 $w=3.58e-07 $l=2.3e-07 $layer=LI1_cond $X=12.98 $Y=1.555
+ $X2=12.75 $Y2=1.555
r311 89 90 145.28 $w=1.7e-07 $l=1.7e-07 $layer=licon1_POLY $count=1 $X=12.98
+ $Y=1.57 $X2=12.98 $Y2=1.57
r312 83 96 48.0869 $w=3.3e-07 $l=2.75e-07 $layer=POLY_cond $X=5.215 $Y=1.77
+ $X2=5.49 $Y2=1.77
r313 83 93 14.8632 $w=3.3e-07 $l=8.5e-08 $layer=POLY_cond $X=5.215 $Y=1.77
+ $X2=5.13 $Y2=1.77
r314 82 85 8.46218 $w=3.28e-07 $l=1.65e-07 $layer=LI1_cond $X=5.215 $Y=1.77
+ $X2=5.215 $Y2=1.935
r315 82 83 145.28 $w=1.7e-07 $l=1.7e-07 $layer=licon1_POLY $count=1 $X=5.215
+ $Y=1.77 $X2=5.215 $Y2=1.77
r316 80 91 43.7112 $w=1.68e-07 $l=6.7e-07 $layer=LI1_cond $X=12.08 $Y=1.46
+ $X2=12.75 $Y2=1.46
r317 77 80 6.81649 $w=1.7e-07 $l=1.20208e-07 $layer=LI1_cond $X=11.995 $Y=1.545
+ $X2=12.08 $Y2=1.46
r318 77 78 26.4225 $w=1.68e-07 $l=4.05e-07 $layer=LI1_cond $X=11.995 $Y=1.545
+ $X2=11.995 $Y2=1.95
r319 75 78 6.81649 $w=1.7e-07 $l=1.20208e-07 $layer=LI1_cond $X=11.91 $Y=2.035
+ $X2=11.995 $Y2=1.95
r320 75 76 30.3369 $w=1.68e-07 $l=4.65e-07 $layer=LI1_cond $X=11.91 $Y=2.035
+ $X2=11.445 $Y2=2.035
r321 71 76 8.05333 $w=1.95e-07 $l=1.39194e-07 $layer=LI1_cond $X=11.32 $Y=2.065
+ $X2=11.445 $Y2=2.035
r322 71 73 10.372 $w=2.48e-07 $l=2.25e-07 $layer=LI1_cond $X=11.32 $Y=2.18
+ $X2=11.32 $Y2=2.405
r323 70 71 23.7744 $w=1.95e-07 $l=3.8e-07 $layer=LI1_cond $X=10.94 $Y=2.065
+ $X2=11.32 $Y2=2.065
r324 69 70 48.6043 $w=1.68e-07 $l=7.45e-07 $layer=LI1_cond $X=10.94 $Y=1.265
+ $X2=10.94 $Y2=2.01
r325 67 70 5.55076 $w=1.95e-07 $l=9.88686e-08 $layer=LI1_cond $X=10.855 $Y=2.095
+ $X2=10.94 $Y2=2.065
r326 67 68 11.7433 $w=1.68e-07 $l=1.8e-07 $layer=LI1_cond $X=10.855 $Y=2.095
+ $X2=10.675 $Y2=2.095
r327 65 68 6.81649 $w=1.7e-07 $l=1.20208e-07 $layer=LI1_cond $X=10.59 $Y=2.18
+ $X2=10.675 $Y2=2.095
r328 65 66 35.5561 $w=1.68e-07 $l=5.45e-07 $layer=LI1_cond $X=10.59 $Y=2.18
+ $X2=10.59 $Y2=2.725
r329 61 69 7.76618 $w=3.3e-07 $l=2.03101e-07 $layer=LI1_cond $X=10.855 $Y=1.1
+ $X2=10.94 $Y2=1.265
r330 61 63 9.42908 $w=3.28e-07 $l=2.7e-07 $layer=LI1_cond $X=10.855 $Y=1.1
+ $X2=10.585 $Y2=1.1
r331 59 66 6.81649 $w=1.7e-07 $l=1.20208e-07 $layer=LI1_cond $X=10.505 $Y=2.81
+ $X2=10.59 $Y2=2.725
r332 59 60 60.3476 $w=1.68e-07 $l=9.25e-07 $layer=LI1_cond $X=10.505 $Y=2.81
+ $X2=9.58 $Y2=2.81
r333 58 60 6.81649 $w=1.7e-07 $l=1.20208e-07 $layer=LI1_cond $X=9.495 $Y=2.725
+ $X2=9.58 $Y2=2.81
r334 57 58 13.3743 $w=1.68e-07 $l=2.05e-07 $layer=LI1_cond $X=9.495 $Y=2.52
+ $X2=9.495 $Y2=2.725
r335 55 57 6.81649 $w=1.7e-07 $l=1.20208e-07 $layer=LI1_cond $X=9.41 $Y=2.435
+ $X2=9.495 $Y2=2.52
r336 55 56 141.246 $w=1.68e-07 $l=2.165e-06 $layer=LI1_cond $X=9.41 $Y=2.435
+ $X2=7.245 $Y2=2.435
r337 53 56 6.81649 $w=1.7e-07 $l=1.20208e-07 $layer=LI1_cond $X=7.16 $Y=2.52
+ $X2=7.245 $Y2=2.435
r338 53 54 25.1176 $w=1.68e-07 $l=3.85e-07 $layer=LI1_cond $X=7.16 $Y=2.52
+ $X2=7.16 $Y2=2.905
r339 51 54 6.81649 $w=1.7e-07 $l=1.20208e-07 $layer=LI1_cond $X=7.075 $Y=2.99
+ $X2=7.16 $Y2=2.905
r340 51 52 110.583 $w=1.68e-07 $l=1.695e-06 $layer=LI1_cond $X=7.075 $Y=2.99
+ $X2=5.38 $Y2=2.99
r341 50 52 6.81649 $w=1.7e-07 $l=1.20208e-07 $layer=LI1_cond $X=5.295 $Y=2.905
+ $X2=5.38 $Y2=2.99
r342 50 85 63.2834 $w=1.68e-07 $l=9.7e-07 $layer=LI1_cond $X=5.295 $Y=2.905
+ $X2=5.295 $Y2=1.935
r343 44 46 117.936 $w=1.5e-07 $l=2.3e-07 $layer=POLY_cond $X=13.51 $Y=1.1
+ $X2=13.74 $Y2=1.1
r344 40 46 2.83073 $w=1.5e-07 $l=7.5e-08 $layer=POLY_cond $X=13.74 $Y=1.025
+ $X2=13.74 $Y2=1.1
r345 40 42 138.173 $w=1.5e-07 $l=4.3e-07 $layer=POLY_cond $X=13.74 $Y=1.025
+ $X2=13.74 $Y2=0.595
r346 36 48 20.4101 $w=1.5e-07 $l=7.5e-08 $layer=POLY_cond $X=13.51 $Y=1.555
+ $X2=13.51 $Y2=1.48
r347 36 38 405.085 $w=1.5e-07 $l=7.9e-07 $layer=POLY_cond $X=13.51 $Y=1.555
+ $X2=13.51 $Y2=2.345
r348 35 48 20.4101 $w=1.5e-07 $l=7.5e-08 $layer=POLY_cond $X=13.51 $Y=1.405
+ $X2=13.51 $Y2=1.48
r349 34 44 2.83073 $w=1.5e-07 $l=7.5e-08 $layer=POLY_cond $X=13.51 $Y=1.175
+ $X2=13.51 $Y2=1.1
r350 34 35 117.936 $w=1.5e-07 $l=2.3e-07 $layer=POLY_cond $X=13.51 $Y=1.175
+ $X2=13.51 $Y2=1.405
r351 33 99 26.4667 $w=1.5e-07 $l=2.05e-07 $layer=POLY_cond $X=13.225 $Y=1.48
+ $X2=13.02 $Y2=1.48
r352 32 48 5.30422 $w=1.5e-07 $l=7.5e-08 $layer=POLY_cond $X=13.435 $Y=1.48
+ $X2=13.51 $Y2=1.48
r353 32 33 107.681 $w=1.5e-07 $l=2.1e-07 $layer=POLY_cond $X=13.435 $Y=1.48
+ $X2=13.225 $Y2=1.48
r354 30 102 312.787 $w=1.5e-07 $l=6.1e-07 $layer=POLY_cond $X=13.15 $Y=2.345
+ $X2=13.15 $Y2=1.735
r355 25 97 21.2229 $w=1.5e-07 $l=1.65e-07 $layer=POLY_cond $X=5.5 $Y=1.605
+ $X2=5.5 $Y2=1.77
r356 25 27 102.827 $w=1.5e-07 $l=3.2e-07 $layer=POLY_cond $X=5.5 $Y=1.605
+ $X2=5.5 $Y2=1.285
r357 22 24 394.83 $w=1.5e-07 $l=7.7e-07 $layer=POLY_cond $X=5.49 $Y=3.075
+ $X2=5.49 $Y2=2.305
r358 21 96 21.2229 $w=1.5e-07 $l=1.65e-07 $layer=POLY_cond $X=5.49 $Y=1.935
+ $X2=5.49 $Y2=1.77
r359 21 24 189.723 $w=1.5e-07 $l=3.7e-07 $layer=POLY_cond $X=5.49 $Y=1.935
+ $X2=5.49 $Y2=2.305
r360 20 43 20.4101 $w=1.5e-07 $l=7.5e-08 $layer=POLY_cond $X=5.205 $Y=3.15
+ $X2=5.13 $Y2=3.15
r361 19 22 26.9307 $w=1.5e-07 $l=1.06066e-07 $layer=POLY_cond $X=5.415 $Y=3.15
+ $X2=5.49 $Y2=3.075
r362 19 20 107.681 $w=1.5e-07 $l=2.1e-07 $layer=POLY_cond $X=5.415 $Y=3.15
+ $X2=5.205 $Y2=3.15
r363 16 43 5.30422 $w=1.5e-07 $l=7.5e-08 $layer=POLY_cond $X=5.13 $Y=3.075
+ $X2=5.13 $Y2=3.15
r364 16 18 394.83 $w=1.5e-07 $l=7.7e-07 $layer=POLY_cond $X=5.13 $Y=3.075
+ $X2=5.13 $Y2=2.305
r365 15 93 21.2229 $w=1.5e-07 $l=1.65e-07 $layer=POLY_cond $X=5.13 $Y=1.935
+ $X2=5.13 $Y2=1.77
r366 15 18 189.723 $w=1.5e-07 $l=3.7e-07 $layer=POLY_cond $X=5.13 $Y=1.935
+ $X2=5.13 $Y2=2.305
r367 13 43 20.4101 $w=1.5e-07 $l=7.5e-08 $layer=POLY_cond $X=5.055 $Y=3.15
+ $X2=5.13 $Y2=3.15
r368 13 14 612.755 $w=1.5e-07 $l=1.195e-06 $layer=POLY_cond $X=5.055 $Y=3.15
+ $X2=3.86 $Y2=3.15
r369 9 12 902.468 $w=1.5e-07 $l=1.76e-06 $layer=POLY_cond $X=3.785 $Y=0.655
+ $X2=3.785 $Y2=2.415
r370 7 14 26.9307 $w=1.5e-07 $l=1.06066e-07 $layer=POLY_cond $X=3.785 $Y=3.075
+ $X2=3.86 $Y2=3.15
r371 7 12 338.426 $w=1.5e-07 $l=6.6e-07 $layer=POLY_cond $X=3.785 $Y=3.075
+ $X2=3.785 $Y2=2.415
r372 2 73 600 $w=1.7e-07 $l=3.73497e-07 $layer=licon1_PDIFF $count=1 $X=11.22
+ $Y=2.095 $X2=11.36 $Y2=2.405
r373 1 63 182 $w=1.7e-07 $l=6.83667e-07 $layer=licon1_NDIFF $count=1 $X=10.44
+ $Y=0.485 $X2=10.585 $Y2=1.1
.ends

.subckt PM_SKY130_FD_SC_LP__SRSDFRTN_1%A_666_89# 1 2 7 9 12 14 16 17 19 23 25 29
+ 33 38 42 43 44 45 48 54 55 59 62
c197 62 0 3.2762e-19 $X=6.32 $Y=1.77
c198 59 0 3.44653e-19 $X=6.29 $Y=1.77
c199 55 0 5.93087e-20 $X=14.16 $Y=2.035
c200 42 0 2.62237e-20 $X=6.335 $Y=2.035
c201 38 0 5.16263e-20 $X=14.22 $Y=1.29
c202 33 0 1.69305e-19 $X=3.465 $Y=1.43
r203 61 62 145.28 $w=1.7e-07 $l=1.7e-07 $layer=licon1_POLY $count=1 $X=6.32
+ $Y=1.77 $X2=6.32 $Y2=1.77
r204 59 61 4.82 $w=3e-07 $l=3e-08 $layer=POLY_cond $X=6.29 $Y=1.77 $X2=6.32
+ $Y2=1.77
r205 58 59 32.9367 $w=3e-07 $l=2.05e-07 $layer=POLY_cond $X=6.085 $Y=1.77
+ $X2=6.29 $Y2=1.77
r206 54 55 9.3 $w=1.7e-07 $l=1.7e-07 $layer=mcon $count=1 $X=14.16 $Y=2.035
+ $X2=14.16 $Y2=2.035
r207 52 62 7.44872 $w=4.08e-07 $l=2.65e-07 $layer=LI1_cond $X=6.36 $Y=2.035
+ $X2=6.36 $Y2=1.77
r208 51 52 9.3 $w=1.7e-07 $l=1.7e-07 $layer=mcon $count=1 $X=6.48 $Y=2.035
+ $X2=6.48 $Y2=2.035
r209 48 67 17.0562 $w=2.48e-07 $l=3.7e-07 $layer=LI1_cond $X=3.61 $Y=2.035
+ $X2=3.61 $Y2=2.405
r210 47 48 9.3 $w=1.7e-07 $l=1.7e-07 $layer=mcon $count=1 $X=3.6 $Y=2.035
+ $X2=3.6 $Y2=2.035
r211 45 51 0.115467 $w=2.3e-07 $l=1.45e-07 $layer=MET1_cond $X=6.625 $Y=2.035
+ $X2=6.48 $Y2=2.035
r212 44 54 0.115467 $w=2.3e-07 $l=1.45e-07 $layer=MET1_cond $X=14.015 $Y=2.035
+ $X2=14.16 $Y2=2.035
r213 44 45 9.14602 $w=1.4e-07 $l=7.39e-06 $layer=MET1_cond $X=14.015 $Y=2.035
+ $X2=6.625 $Y2=2.035
r214 43 47 0.115467 $w=2.3e-07 $l=1.45e-07 $layer=MET1_cond $X=3.745 $Y=2.035
+ $X2=3.6 $Y2=2.035
r215 42 51 0.115467 $w=2.3e-07 $l=1.45e-07 $layer=MET1_cond $X=6.335 $Y=2.035
+ $X2=6.48 $Y2=2.035
r216 42 43 3.20544 $w=1.4e-07 $l=2.59e-06 $layer=MET1_cond $X=6.335 $Y=2.035
+ $X2=3.745 $Y2=2.035
r217 41 55 37.8396 $w=1.68e-07 $l=5.8e-07 $layer=LI1_cond $X=14.16 $Y=1.455
+ $X2=14.16 $Y2=2.035
r218 39 63 11.6613 $w=3.72e-07 $l=9e-08 $layer=POLY_cond $X=14.177 $Y=1.29
+ $X2=14.177 $Y2=1.2
r219 38 41 8.53353 $w=2.83e-07 $l=1.65e-07 $layer=LI1_cond $X=14.217 $Y=1.29
+ $X2=14.217 $Y2=1.455
r220 38 39 145.28 $w=1.7e-07 $l=1.7e-07 $layer=licon1_POLY $count=1 $X=14.22
+ $Y=1.29 $X2=14.22 $Y2=1.29
r221 35 48 20.283 $w=2.48e-07 $l=4.4e-07 $layer=LI1_cond $X=3.61 $Y=1.595
+ $X2=3.61 $Y2=2.035
r222 33 35 6.37886 $w=3.53e-07 $l=1.65e-07 $layer=LI1_cond $X=3.557 $Y=1.43
+ $X2=3.557 $Y2=1.595
r223 27 29 215.362 $w=1.5e-07 $l=4.2e-07 $layer=POLY_cond $X=14.68 $Y=1.125
+ $X2=14.68 $Y2=0.705
r224 26 63 24.0971 $w=1.5e-07 $l=2.18e-07 $layer=POLY_cond $X=14.395 $Y=1.2
+ $X2=14.177 $Y2=1.2
r225 25 27 26.9307 $w=1.5e-07 $l=1.06066e-07 $layer=POLY_cond $X=14.605 $Y=1.2
+ $X2=14.68 $Y2=1.125
r226 25 26 107.681 $w=1.5e-07 $l=2.1e-07 $layer=POLY_cond $X=14.605 $Y=1.2
+ $X2=14.395 $Y2=1.2
r227 21 63 27.4257 $w=3.72e-07 $l=1.76562e-07 $layer=POLY_cond $X=14.32 $Y=1.125
+ $X2=14.177 $Y2=1.2
r228 21 23 215.362 $w=1.5e-07 $l=4.2e-07 $layer=POLY_cond $X=14.32 $Y=1.125
+ $X2=14.32 $Y2=0.705
r229 17 39 53.3397 $w=3.72e-07 $l=3.38637e-07 $layer=POLY_cond $X=14.035
+ $Y=1.565 $X2=14.177 $Y2=1.29
r230 17 19 292.277 $w=1.5e-07 $l=5.7e-07 $layer=POLY_cond $X=14.035 $Y=1.565
+ $X2=14.035 $Y2=2.135
r231 14 59 18.9685 $w=1.5e-07 $l=1.65e-07 $layer=POLY_cond $X=6.29 $Y=1.605
+ $X2=6.29 $Y2=1.77
r232 14 16 102.827 $w=1.5e-07 $l=3.2e-07 $layer=POLY_cond $X=6.29 $Y=1.605
+ $X2=6.29 $Y2=1.285
r233 10 58 7.1379 $w=2.5e-07 $l=1.65e-07 $layer=POLY_cond $X=6.085 $Y=1.935
+ $X2=6.085 $Y2=1.77
r234 10 12 163.979 $w=2.5e-07 $l=6.6e-07 $layer=POLY_cond $X=6.085 $Y=1.935
+ $X2=6.085 $Y2=2.595
r235 7 58 24.9033 $w=3e-07 $l=2.29783e-07 $layer=POLY_cond $X=5.93 $Y=1.605
+ $X2=6.085 $Y2=1.77
r236 7 9 102.827 $w=1.5e-07 $l=3.2e-07 $layer=POLY_cond $X=5.93 $Y=1.605
+ $X2=5.93 $Y2=1.285
r237 2 67 600 $w=1.7e-07 $l=3.75566e-07 $layer=licon1_PDIFF $count=1 $X=3.425
+ $Y=2.095 $X2=3.57 $Y2=2.405
r238 1 33 182 $w=1.7e-07 $l=1.05033e-06 $layer=licon1_NDIFF $count=1 $X=3.33
+ $Y=0.445 $X2=3.465 $Y2=1.43
.ends

.subckt PM_SKY130_FD_SC_LP__SRSDFRTN_1%A_1343_51# 1 2 3 4 15 17 20 24 26 27 30
+ 33 34 36 37 40 44 45 46 48 49 50 52 54 55 59 62 63 65 66 70 71 74 78
c217 59 0 2.79523e-20 $X=14.5 $Y=1.86
c218 55 0 1.89357e-19 $X=14.53 $Y=0.34
c219 45 0 1.44185e-19 $X=11.535 $Y=0.34
c220 26 0 1.3264e-19 $X=6.795 $Y=0.915
r221 72 74 7.50267 $w=1.68e-07 $l=1.15e-07 $layer=LI1_cond $X=14.5 $Y=1.71
+ $X2=14.615 $Y2=1.71
r222 69 71 8.51103 $w=3.58e-07 $l=1.65e-07 $layer=LI1_cond $X=13.49 $Y=0.435
+ $X2=13.655 $Y2=0.435
r223 69 70 8.51103 $w=3.58e-07 $l=1.65e-07 $layer=LI1_cond $X=13.49 $Y=0.435
+ $X2=13.325 $Y2=0.435
r224 65 66 8.79328 $w=2.48e-07 $l=1.65e-07 $layer=LI1_cond $X=9.795 $Y=1.715
+ $X2=9.63 $Y2=1.715
r225 62 74 0.716491 $w=1.7e-07 $l=8.5e-08 $layer=LI1_cond $X=14.615 $Y=1.625
+ $X2=14.615 $Y2=1.71
r226 61 62 78.2888 $w=1.68e-07 $l=1.2e-06 $layer=LI1_cond $X=14.615 $Y=0.425
+ $X2=14.615 $Y2=1.625
r227 57 72 0.716491 $w=1.7e-07 $l=8.5e-08 $layer=LI1_cond $X=14.5 $Y=1.795
+ $X2=14.5 $Y2=1.71
r228 57 59 4.24064 $w=1.68e-07 $l=6.5e-08 $layer=LI1_cond $X=14.5 $Y=1.795
+ $X2=14.5 $Y2=1.86
r229 55 61 6.81649 $w=1.7e-07 $l=1.20208e-07 $layer=LI1_cond $X=14.53 $Y=0.34
+ $X2=14.615 $Y2=0.425
r230 55 71 57.0856 $w=1.68e-07 $l=8.75e-07 $layer=LI1_cond $X=14.53 $Y=0.34
+ $X2=13.655 $Y2=0.34
r231 54 70 47.6257 $w=1.68e-07 $l=7.3e-07 $layer=LI1_cond $X=12.595 $Y=0.34
+ $X2=13.325 $Y2=0.34
r232 51 54 6.81649 $w=1.7e-07 $l=1.20208e-07 $layer=LI1_cond $X=12.51 $Y=0.425
+ $X2=12.595 $Y2=0.34
r233 51 52 12.3957 $w=1.68e-07 $l=1.9e-07 $layer=LI1_cond $X=12.51 $Y=0.425
+ $X2=12.51 $Y2=0.615
r234 49 52 6.81649 $w=1.7e-07 $l=1.20208e-07 $layer=LI1_cond $X=12.425 $Y=0.7
+ $X2=12.51 $Y2=0.615
r235 49 50 46.9733 $w=1.68e-07 $l=7.2e-07 $layer=LI1_cond $X=12.425 $Y=0.7
+ $X2=11.705 $Y2=0.7
r236 48 50 6.81649 $w=1.7e-07 $l=1.20208e-07 $layer=LI1_cond $X=11.62 $Y=0.615
+ $X2=11.705 $Y2=0.7
r237 47 48 12.3957 $w=1.68e-07 $l=1.9e-07 $layer=LI1_cond $X=11.62 $Y=0.425
+ $X2=11.62 $Y2=0.615
r238 45 47 6.81649 $w=1.7e-07 $l=1.20208e-07 $layer=LI1_cond $X=11.535 $Y=0.34
+ $X2=11.62 $Y2=0.425
r239 45 46 108.952 $w=1.68e-07 $l=1.67e-06 $layer=LI1_cond $X=11.535 $Y=0.34
+ $X2=9.865 $Y2=0.34
r240 42 44 14.3182 $w=3.28e-07 $l=4.1e-07 $layer=LI1_cond $X=9.7 $Y=0.875
+ $X2=9.7 $Y2=0.465
r241 41 46 7.76618 $w=1.7e-07 $l=2.03101e-07 $layer=LI1_cond $X=9.7 $Y=0.425
+ $X2=9.865 $Y2=0.34
r242 41 44 1.3969 $w=3.28e-07 $l=4e-08 $layer=LI1_cond $X=9.7 $Y=0.425 $X2=9.7
+ $Y2=0.465
r243 40 66 72.0909 $w=1.68e-07 $l=1.105e-06 $layer=LI1_cond $X=8.525 $Y=1.755
+ $X2=9.63 $Y2=1.755
r244 38 63 5.16603 $w=1.7e-07 $l=8.5e-08 $layer=LI1_cond $X=8.525 $Y=0.96
+ $X2=8.44 $Y2=0.96
r245 37 42 7.76618 $w=1.7e-07 $l=2.03101e-07 $layer=LI1_cond $X=9.535 $Y=0.96
+ $X2=9.7 $Y2=0.875
r246 37 38 65.8931 $w=1.68e-07 $l=1.01e-06 $layer=LI1_cond $X=9.535 $Y=0.96
+ $X2=8.525 $Y2=0.96
r247 36 40 6.81649 $w=1.7e-07 $l=1.20208e-07 $layer=LI1_cond $X=8.44 $Y=1.67
+ $X2=8.525 $Y2=1.755
r248 35 63 1.34256 $w=1.7e-07 $l=8.5e-08 $layer=LI1_cond $X=8.44 $Y=1.045
+ $X2=8.44 $Y2=0.96
r249 35 36 40.7754 $w=1.68e-07 $l=6.25e-07 $layer=LI1_cond $X=8.44 $Y=1.045
+ $X2=8.44 $Y2=1.67
r250 33 63 5.16603 $w=1.7e-07 $l=8.5e-08 $layer=LI1_cond $X=8.355 $Y=0.96
+ $X2=8.44 $Y2=0.96
r251 33 34 51.2139 $w=1.68e-07 $l=7.85e-07 $layer=LI1_cond $X=8.355 $Y=0.96
+ $X2=7.57 $Y2=0.96
r252 31 78 40.7992 $w=2.54e-07 $l=2.15e-07 $layer=POLY_cond $X=7.405 $Y=1.282
+ $X2=7.19 $Y2=1.282
r253 30 31 145.28 $w=1.7e-07 $l=1.7e-07 $layer=licon1_POLY $count=1 $X=7.405
+ $Y=1.275 $X2=7.405 $Y2=1.275
r254 28 34 7.76618 $w=1.7e-07 $l=2.03101e-07 $layer=LI1_cond $X=7.405 $Y=1.045
+ $X2=7.57 $Y2=0.96
r255 28 30 8.03218 $w=3.28e-07 $l=2.3e-07 $layer=LI1_cond $X=7.405 $Y=1.045
+ $X2=7.405 $Y2=1.275
r256 26 27 69.5192 $w=1.6e-07 $l=1.5e-07 $layer=POLY_cond $X=6.795 $Y=0.915
+ $X2=6.795 $Y2=1.065
r257 22 78 15.087 $w=1.5e-07 $l=1.72e-07 $layer=POLY_cond $X=7.19 $Y=1.11
+ $X2=7.19 $Y2=1.282
r258 22 24 264.074 $w=1.5e-07 $l=5.15e-07 $layer=POLY_cond $X=7.19 $Y=1.11
+ $X2=7.19 $Y2=0.595
r259 18 78 64.5197 $w=2.54e-07 $l=4.17636e-07 $layer=POLY_cond $X=6.85 $Y=1.455
+ $X2=7.19 $Y2=1.282
r260 18 20 283.237 $w=2.5e-07 $l=1.14e-06 $layer=POLY_cond $X=6.85 $Y=1.455
+ $X2=6.85 $Y2=2.595
r261 17 18 9.48819 $w=2.54e-07 $l=1.73205e-07 $layer=POLY_cond $X=6.8 $Y=1.305
+ $X2=6.85 $Y2=1.455
r262 17 27 123.064 $w=1.5e-07 $l=2.4e-07 $layer=POLY_cond $X=6.8 $Y=1.305
+ $X2=6.8 $Y2=1.065
r263 15 26 102.827 $w=1.5e-07 $l=3.2e-07 $layer=POLY_cond $X=6.79 $Y=0.595
+ $X2=6.79 $Y2=0.915
r264 4 59 300 $w=1.7e-07 $l=4.56782e-07 $layer=licon1_PDIFF $count=2 $X=14.11
+ $Y=1.715 $X2=14.5 $Y2=1.86
r265 3 65 600 $w=1.7e-07 $l=2.58795e-07 $layer=licon1_PDIFF $count=1 $X=9.56
+ $Y=1.705 $X2=9.795 $Y2=1.755
r266 2 69 182 $w=1.7e-07 $l=2.20907e-07 $layer=licon1_NDIFF $count=1 $X=13.345
+ $Y=0.275 $X2=13.49 $Y2=0.435
r267 1 44 182 $w=1.7e-07 $l=2.91719e-07 $layer=licon1_NDIFF $count=1 $X=9.56
+ $Y=0.235 $X2=9.7 $Y2=0.465
.ends

.subckt PM_SKY130_FD_SC_LP__SRSDFRTN_1%A_1724_21# 1 2 9 13 15 18 19 20 22 23 24
+ 25 27 29 33 35 38 41 43 46
c154 43 0 9.16269e-20 $X=9.025 $Y=1.357
c155 27 0 7.79314e-20 $X=12.415 $Y=2.59
c156 25 0 2.05894e-19 $X=12.415 $Y=2.075
c157 19 0 1.87318e-19 $X=11.195 $Y=0.68
c158 13 0 1.07616e-19 $X=8.745 $Y=2.205
c159 9 0 3.01101e-20 $X=8.695 $Y=0.445
r160 41 49 30.7525 $w=4.05e-07 $l=1.65e-07 $layer=POLY_cond $X=8.822 $Y=1.355
+ $X2=8.822 $Y2=1.52
r161 41 48 45.79 $w=4.05e-07 $l=1.65e-07 $layer=POLY_cond $X=8.822 $Y=1.355
+ $X2=8.822 $Y2=1.19
r162 40 43 8.53353 $w=2.83e-07 $l=1.65e-07 $layer=LI1_cond $X=8.86 $Y=1.357
+ $X2=9.025 $Y2=1.357
r163 40 41 145.28 $w=1.7e-07 $l=1.7e-07 $layer=licon1_POLY $count=1 $X=8.86
+ $Y=1.355 $X2=8.86 $Y2=1.355
r164 37 38 50.8877 $w=1.68e-07 $l=7.8e-07 $layer=LI1_cond $X=13.4 $Y=1.125
+ $X2=13.4 $Y2=1.905
r165 36 46 8.61065 $w=1.7e-07 $l=1.65e-07 $layer=LI1_cond $X=13.095 $Y=1.04
+ $X2=12.93 $Y2=1.04
r166 35 37 6.81649 $w=1.7e-07 $l=1.20208e-07 $layer=LI1_cond $X=13.315 $Y=1.04
+ $X2=13.4 $Y2=1.125
r167 35 36 14.3529 $w=1.68e-07 $l=2.2e-07 $layer=LI1_cond $X=13.315 $Y=1.04
+ $X2=13.095 $Y2=1.04
r168 31 46 0.89609 $w=3.3e-07 $l=8.5e-08 $layer=LI1_cond $X=12.93 $Y=0.955
+ $X2=12.93 $Y2=1.04
r169 31 33 6.80989 $w=3.28e-07 $l=1.95e-07 $layer=LI1_cond $X=12.93 $Y=0.955
+ $X2=12.93 $Y2=0.76
r170 30 45 4.5891 $w=1.7e-07 $l=2.07123e-07 $layer=LI1_cond $X=12.58 $Y=1.99
+ $X2=12.415 $Y2=1.895
r171 29 38 6.81649 $w=1.7e-07 $l=1.20208e-07 $layer=LI1_cond $X=13.315 $Y=1.99
+ $X2=13.4 $Y2=1.905
r172 29 30 47.9519 $w=1.68e-07 $l=7.35e-07 $layer=LI1_cond $X=13.315 $Y=1.99
+ $X2=12.58 $Y2=1.99
r173 25 45 3.17707 $w=3.3e-07 $l=1.8e-07 $layer=LI1_cond $X=12.415 $Y=2.075
+ $X2=12.415 $Y2=1.895
r174 25 27 17.9851 $w=3.28e-07 $l=5.15e-07 $layer=LI1_cond $X=12.415 $Y=2.075
+ $X2=12.415 $Y2=2.59
r175 23 46 8.61065 $w=1.7e-07 $l=1.65e-07 $layer=LI1_cond $X=12.765 $Y=1.04
+ $X2=12.93 $Y2=1.04
r176 23 24 91.3369 $w=1.68e-07 $l=1.4e-06 $layer=LI1_cond $X=12.765 $Y=1.04
+ $X2=11.365 $Y2=1.04
r177 22 24 6.81649 $w=1.7e-07 $l=1.20208e-07 $layer=LI1_cond $X=11.28 $Y=0.955
+ $X2=11.365 $Y2=1.04
r178 21 22 12.3957 $w=1.68e-07 $l=1.9e-07 $layer=LI1_cond $X=11.28 $Y=0.765
+ $X2=11.28 $Y2=0.955
r179 19 21 6.81649 $w=1.7e-07 $l=1.20208e-07 $layer=LI1_cond $X=11.195 $Y=0.68
+ $X2=11.28 $Y2=0.765
r180 19 20 64.5882 $w=1.68e-07 $l=9.9e-07 $layer=LI1_cond $X=11.195 $Y=0.68
+ $X2=10.205 $Y2=0.68
r181 17 20 6.81649 $w=1.7e-07 $l=1.20208e-07 $layer=LI1_cond $X=10.12 $Y=0.765
+ $X2=10.205 $Y2=0.68
r182 17 18 29.3583 $w=1.68e-07 $l=4.5e-07 $layer=LI1_cond $X=10.12 $Y=0.765
+ $X2=10.12 $Y2=1.215
r183 15 18 6.81649 $w=1.7e-07 $l=1.20208e-07 $layer=LI1_cond $X=10.035 $Y=1.3
+ $X2=10.12 $Y2=1.215
r184 15 43 65.8931 $w=1.68e-07 $l=1.01e-06 $layer=LI1_cond $X=10.035 $Y=1.3
+ $X2=9.025 $Y2=1.3
r185 13 49 170.191 $w=2.5e-07 $l=6.85e-07 $layer=POLY_cond $X=8.745 $Y=2.205
+ $X2=8.745 $Y2=1.52
r186 9 48 382.011 $w=1.5e-07 $l=7.45e-07 $layer=POLY_cond $X=8.695 $Y=0.445
+ $X2=8.695 $Y2=1.19
r187 2 45 400 $w=1.7e-07 $l=2.03286e-07 $layer=licon1_PDIFF $count=1 $X=12.275
+ $Y=1.735 $X2=12.415 $Y2=1.88
r188 2 27 400 $w=1.7e-07 $l=9.22348e-07 $layer=licon1_PDIFF $count=1 $X=12.275
+ $Y=1.735 $X2=12.415 $Y2=2.59
r189 1 33 182 $w=1.7e-07 $l=3.37824e-07 $layer=licon1_NDIFF $count=1 $X=12.79
+ $Y=0.485 $X2=12.93 $Y2=0.76
.ends

.subckt PM_SKY130_FD_SC_LP__SRSDFRTN_1%A_1113_419# 1 2 3 10 12 15 17 19 20 21 23
+ 27 29 31 34 35 36 39 43 44 48
c144 29 0 1.59996e-19 $X=5.715 $Y=1.36
c145 15 0 9.59449e-20 $X=9.435 $Y=2.205
r146 44 49 30.6007 $w=3.3e-07 $l=1.75e-07 $layer=POLY_cond $X=10.245 $Y=2.39
+ $X2=10.07 $Y2=2.39
r147 43 44 145.28 $w=1.7e-07 $l=1.7e-07 $layer=licon1_POLY $count=1 $X=10.245
+ $Y=2.39 $X2=10.245 $Y2=2.39
r148 41 43 9.49071 $w=2.53e-07 $l=2.1e-07 $layer=LI1_cond $X=10.207 $Y=2.18
+ $X2=10.207 $Y2=2.39
r149 39 41 7.17723 $w=1.7e-07 $l=1.64085e-07 $layer=LI1_cond $X=10.08 $Y=2.095
+ $X2=10.207 $Y2=2.18
r150 39 48 123.631 $w=1.68e-07 $l=1.895e-06 $layer=LI1_cond $X=10.08 $Y=2.095
+ $X2=8.185 $Y2=2.095
r151 36 38 55.8684 $w=2.28e-07 $l=1.115e-06 $layer=LI1_cond $X=6.905 $Y=2.065
+ $X2=8.02 $Y2=2.065
r152 35 48 6.56993 $w=2.28e-07 $l=1.15e-07 $layer=LI1_cond $X=8.07 $Y=2.065
+ $X2=8.185 $Y2=2.065
r153 35 38 2.50531 $w=2.28e-07 $l=5e-08 $layer=LI1_cond $X=8.07 $Y=2.065
+ $X2=8.02 $Y2=2.065
r154 33 36 7.01789 $w=2.3e-07 $l=1.51658e-07 $layer=LI1_cond $X=6.82 $Y=2.18
+ $X2=6.905 $Y2=2.065
r155 33 34 9.13369 $w=1.68e-07 $l=1.4e-07 $layer=LI1_cond $X=6.82 $Y=2.18
+ $X2=6.82 $Y2=2.32
r156 32 47 5.39226 $w=1.7e-07 $l=2.7225e-07 $layer=LI1_cond $X=5.985 $Y=2.405
+ $X2=5.767 $Y2=2.527