* File: sky130_fd_sc_lp__sdfbbp_1.pex.spice
* Created: Wed Sep  2 10:33:58 2020
* Program "Calibre xRC"
* Version "v2018.4_34.26"
* Nominal Temperature: 27C
* Circuit Temperature: 27C
* 
.subckt PM_SKY130_FD_SC_LP__SDFBBP_1%SCD 5 9 13 15 16 17 18 21 22
c41 21 0 3.63052e-20 $X=0.385 $Y=1.38
r42 21 22 72.64 $w=1.7e-07 $l=3.4e-07 $layer=licon1_POLY $count=2 $X=0.385
+ $Y=1.38 $X2=0.385 $Y2=1.38
r43 18 22 2.58853 $w=6.68e-07 $l=1.45e-07 $layer=LI1_cond $X=0.24 $Y=1.55
+ $X2=0.385 $Y2=1.55
r44 16 17 63.4211 $w=1.7e-07 $l=1.5e-07 $layer=POLY_cond $X=0.485 $Y=2.12
+ $X2=0.485 $Y2=2.27
r45 15 16 120.5 $w=1.5e-07 $l=2.35e-07 $layer=POLY_cond $X=0.475 $Y=1.885
+ $X2=0.475 $Y2=2.12
r46 14 21 59.4528 $w=3.3e-07 $l=3.4e-07 $layer=POLY_cond $X=0.385 $Y=1.72
+ $X2=0.385 $Y2=1.38
r47 14 15 46.2115 $w=3.3e-07 $l=1.65e-07 $layer=POLY_cond $X=0.385 $Y=1.72
+ $X2=0.385 $Y2=1.885
r48 13 21 12.2403 $w=3.3e-07 $l=7e-08 $layer=POLY_cond $X=0.385 $Y=1.31
+ $X2=0.385 $Y2=1.38
r49 12 13 43.5886 $w=3.3e-07 $l=1.5e-07 $layer=POLY_cond $X=0.425 $Y=1.16
+ $X2=0.425 $Y2=1.31
r50 9 12 182.032 $w=1.5e-07 $l=3.55e-07 $layer=POLY_cond $X=0.555 $Y=0.805
+ $X2=0.555 $Y2=1.16
r51 5 17 233.309 $w=1.5e-07 $l=4.55e-07 $layer=POLY_cond $X=0.495 $Y=2.725
+ $X2=0.495 $Y2=2.27
.ends

.subckt PM_SKY130_FD_SC_LP__SDFBBP_1%D 3 7 9 15
c43 9 0 3.02992e-19 $X=1.68 $Y=1.665
r44 13 15 33.2236 $w=3.3e-07 $l=1.9e-07 $layer=POLY_cond $X=1.435 $Y=1.69
+ $X2=1.625 $Y2=1.69
r45 11 13 10.4917 $w=3.3e-07 $l=6e-08 $layer=POLY_cond $X=1.375 $Y=1.69
+ $X2=1.435 $Y2=1.69
r46 9 15 145.28 $w=1.7e-07 $l=1.7e-07 $layer=licon1_POLY $count=1 $X=1.625
+ $Y=1.69 $X2=1.625 $Y2=1.69
r47 5 13 21.2229 $w=1.5e-07 $l=1.65e-07 $layer=POLY_cond $X=1.435 $Y=1.855
+ $X2=1.435 $Y2=1.69
r48 5 7 446.106 $w=1.5e-07 $l=8.7e-07 $layer=POLY_cond $X=1.435 $Y=1.855
+ $X2=1.435 $Y2=2.725
r49 1 11 21.2229 $w=1.5e-07 $l=1.65e-07 $layer=POLY_cond $X=1.375 $Y=1.525
+ $X2=1.375 $Y2=1.69
r50 1 3 369.191 $w=1.5e-07 $l=7.2e-07 $layer=POLY_cond $X=1.375 $Y=1.525
+ $X2=1.375 $Y2=0.805
.ends

.subckt PM_SKY130_FD_SC_LP__SDFBBP_1%A_332_93# 1 2 7 9 12 14 15 17 19 22 25 28
+ 30 36 39 40 44
c91 39 0 1.52779e-19 $X=2.49 $Y=1.69
c92 22 0 3.10692e-20 $X=2.075 $Y=2.17
c93 15 0 1.65e-19 $X=1.81 $Y=1.165
c94 14 0 1.50206e-19 $X=2 $Y=1.165
r95 39 42 2.24867 $w=4.08e-07 $l=8e-08 $layer=LI1_cond $X=2.53 $Y=1.69 $X2=2.53
+ $Y2=1.77
r96 39 41 8.69073 $w=4.08e-07 $l=1.65e-07 $layer=LI1_cond $X=2.53 $Y=1.69
+ $X2=2.53 $Y2=1.525
r97 39 40 145.28 $w=1.7e-07 $l=1.7e-07 $layer=licon1_POLY $count=1 $X=2.49
+ $Y=1.69 $X2=2.49 $Y2=1.69
r98 36 44 8.46218 $w=3.28e-07 $l=1.65e-07 $layer=LI1_cond $X=3.15 $Y=2.55
+ $X2=3.15 $Y2=2.385
r99 32 44 34.5775 $w=1.68e-07 $l=5.3e-07 $layer=LI1_cond $X=3.07 $Y=1.855
+ $X2=3.07 $Y2=2.385
r100 31 42 5.92876 $w=1.7e-07 $l=2.05e-07 $layer=LI1_cond $X=2.735 $Y=1.77
+ $X2=2.53 $Y2=1.77
r101 30 32 6.81649 $w=1.7e-07 $l=1.20208e-07 $layer=LI1_cond $X=2.985 $Y=1.77
+ $X2=3.07 $Y2=1.855
r102 30 31 16.3102 $w=1.68e-07 $l=2.5e-07 $layer=LI1_cond $X=2.985 $Y=1.77
+ $X2=2.735 $Y2=1.77
r103 28 41 45.6684 $w=1.68e-07 $l=7e-07 $layer=LI1_cond $X=2.65 $Y=0.825
+ $X2=2.65 $Y2=1.525
r104 24 40 59.4528 $w=3.3e-07 $l=3.4e-07 $layer=POLY_cond $X=2.15 $Y=1.69
+ $X2=2.49 $Y2=1.69
r105 24 25 5.03009 $w=3.3e-07 $l=7.5e-08 $layer=POLY_cond $X=2.15 $Y=1.69
+ $X2=2.075 $Y2=1.69
r106 20 22 107.681 $w=1.5e-07 $l=2.1e-07 $layer=POLY_cond $X=1.865 $Y=2.17
+ $X2=2.075 $Y2=2.17
r107 19 22 2.83073 $w=1.5e-07 $l=7.5e-08 $layer=POLY_cond $X=2.075 $Y=2.095
+ $X2=2.075 $Y2=2.17
r108 18 25 37.0704 $w=1.5e-07 $l=1.65e-07 $layer=POLY_cond $X=2.075 $Y=1.855
+ $X2=2.075 $Y2=1.69
r109 18 19 123.064 $w=1.5e-07 $l=2.4e-07 $layer=POLY_cond $X=2.075 $Y=1.855
+ $X2=2.075 $Y2=2.095
r110 17 25 37.0704 $w=1.5e-07 $l=1.65e-07 $layer=POLY_cond $X=2.075 $Y=1.525
+ $X2=2.075 $Y2=1.69
r111 16 17 146.138 $w=1.5e-07 $l=2.85e-07 $layer=POLY_cond $X=2.075 $Y=1.24
+ $X2=2.075 $Y2=1.525
r112 14 16 26.9307 $w=1.5e-07 $l=1.06066e-07 $layer=POLY_cond $X=2 $Y=1.165
+ $X2=2.075 $Y2=1.24
r113 14 15 97.4255 $w=1.5e-07 $l=1.9e-07 $layer=POLY_cond $X=2 $Y=1.165 $X2=1.81
+ $Y2=1.165
r114 10 20 2.83073 $w=1.5e-07 $l=7.5e-08 $layer=POLY_cond $X=1.865 $Y=2.245
+ $X2=1.865 $Y2=2.17
r115 10 12 246.128 $w=1.5e-07 $l=4.8e-07 $layer=POLY_cond $X=1.865 $Y=2.245
+ $X2=1.865 $Y2=2.725
r116 7 15 26.9307 $w=1.5e-07 $l=1.06066e-07 $layer=POLY_cond $X=1.735 $Y=1.09
+ $X2=1.81 $Y2=1.165
r117 7 9 91.58 $w=1.5e-07 $l=2.85e-07 $layer=POLY_cond $X=1.735 $Y=1.09
+ $X2=1.735 $Y2=0.805
r118 2 36 300 $w=1.7e-07 $l=2.03286e-07 $layer=licon1_PDIFF $count=2 $X=3.01
+ $Y=2.405 $X2=3.15 $Y2=2.55
r119 1 28 182 $w=1.7e-07 $l=2.91719e-07 $layer=licon1_NDIFF $count=1 $X=2.51
+ $Y=0.595 $X2=2.65 $Y2=0.825
.ends

.subckt PM_SKY130_FD_SC_LP__SDFBBP_1%SCE 4 9 11 12 16 17 18 21 25 26 27 28 29 32
c97 27 0 1.52779e-19 $X=2.952 $Y=2.095
c98 26 0 3.13616e-19 $X=1.03 $Y=2.245
c99 25 0 1.64649e-19 $X=1.03 $Y=2.095
c100 4 0 1.06923e-19 $X=0.945 $Y=0.805
r101 32 35 46.2115 $w=3.3e-07 $l=1.65e-07 $layer=POLY_cond $X=0.925 $Y=1.715
+ $X2=0.925 $Y2=1.88
r102 32 34 46.2115 $w=3.3e-07 $l=1.65e-07 $layer=POLY_cond $X=0.925 $Y=1.715
+ $X2=0.925 $Y2=1.55
r103 32 33 145.28 $w=1.7e-07 $l=1.7e-07 $layer=licon1_POLY $count=1 $X=0.925
+ $Y=1.715 $X2=0.925 $Y2=1.715
r104 29 33 9.60369 $w=3.28e-07 $l=2.75e-07 $layer=LI1_cond $X=1.2 $Y=1.715
+ $X2=0.925 $Y2=1.715
r105 27 28 55.4135 $w=1.85e-07 $l=1.5e-07 $layer=POLY_cond $X=2.952 $Y=2.095
+ $X2=2.952 $Y2=2.245
r106 25 26 58.3064 $w=1.8e-07 $l=1.5e-07 $layer=POLY_cond $X=1.03 $Y=2.095
+ $X2=1.03 $Y2=2.245
r107 25 35 110.245 $w=1.5e-07 $l=2.15e-07 $layer=POLY_cond $X=1.015 $Y=2.095
+ $X2=1.015 $Y2=1.88
r108 23 27 438.415 $w=1.5e-07 $l=8.55e-07 $layer=POLY_cond $X=2.97 $Y=1.24
+ $X2=2.97 $Y2=2.095
r109 21 28 246.128 $w=1.5e-07 $l=4.8e-07 $layer=POLY_cond $X=2.935 $Y=2.725
+ $X2=2.935 $Y2=2.245
r110 17 23 26.9307 $w=1.5e-07 $l=1.06066e-07 $layer=POLY_cond $X=2.895 $Y=1.165
+ $X2=2.97 $Y2=1.24
r111 17 18 197.415 $w=1.5e-07 $l=3.85e-07 $layer=POLY_cond $X=2.895 $Y=1.165
+ $X2=2.51 $Y2=1.165
r112 14 18 26.9307 $w=1.5e-07 $l=1.06066e-07 $layer=POLY_cond $X=2.435 $Y=1.09
+ $X2=2.51 $Y2=1.165
r113 14 16 146.138 $w=1.5e-07 $l=2.85e-07 $layer=POLY_cond $X=2.435 $Y=1.09
+ $X2=2.435 $Y2=0.805
r114 13 16 282.021 $w=1.5e-07 $l=5.5e-07 $layer=POLY_cond $X=2.435 $Y=0.255
+ $X2=2.435 $Y2=0.805
r115 11 13 26.9307 $w=1.5e-07 $l=1.06066e-07 $layer=POLY_cond $X=2.36 $Y=0.18
+ $X2=2.435 $Y2=0.255
r116 11 12 687.106 $w=1.5e-07 $l=1.34e-06 $layer=POLY_cond $X=2.36 $Y=0.18
+ $X2=1.02 $Y2=0.18
r117 9 26 246.128 $w=1.5e-07 $l=4.8e-07 $layer=POLY_cond $X=1.045 $Y=2.725
+ $X2=1.045 $Y2=2.245
r118 4 34 382.011 $w=1.5e-07 $l=7.45e-07 $layer=POLY_cond $X=0.945 $Y=0.805
+ $X2=0.945 $Y2=1.55
r119 1 12 26.9307 $w=1.5e-07 $l=1.06066e-07 $layer=POLY_cond $X=0.945 $Y=0.255
+ $X2=1.02 $Y2=0.18
r120 1 4 282.021 $w=1.5e-07 $l=5.5e-07 $layer=POLY_cond $X=0.945 $Y=0.255
+ $X2=0.945 $Y2=0.805
.ends

.subckt PM_SKY130_FD_SC_LP__SDFBBP_1%CLK 3 7 12 14 16 17 21
r42 16 17 12.9213 $w=3.28e-07 $l=3.7e-07 $layer=LI1_cond $X=3.61 $Y=1.665
+ $X2=3.61 $Y2=2.035
r43 16 21 72.64 $w=1.7e-07 $l=3.4e-07 $layer=licon1_POLY $count=2 $X=3.61
+ $Y=1.665 $X2=3.61 $Y2=1.665
r44 12 21 62.0758 $w=3.3e-07 $l=3.55e-07 $layer=POLY_cond $X=3.61 $Y=2.02
+ $X2=3.61 $Y2=1.665
r45 12 14 161.521 $w=1.5e-07 $l=3.15e-07 $layer=POLY_cond $X=3.61 $Y=2.095
+ $X2=3.925 $Y2=2.095
r46 10 21 46.2115 $w=3.3e-07 $l=1.65e-07 $layer=POLY_cond $X=3.61 $Y=1.5
+ $X2=3.61 $Y2=1.665
r47 5 14 2.83073 $w=1.5e-07 $l=7.5e-08 $layer=POLY_cond $X=3.925 $Y=2.17
+ $X2=3.925 $Y2=2.095
r48 5 7 266.638 $w=1.5e-07 $l=5.2e-07 $layer=POLY_cond $X=3.925 $Y=2.17
+ $X2=3.925 $Y2=2.69
r49 3 10 389.702 $w=1.5e-07 $l=7.6e-07 $layer=POLY_cond $X=3.7 $Y=0.74 $X2=3.7
+ $Y2=1.5
.ends

.subckt PM_SKY130_FD_SC_LP__SDFBBP_1%A_893_101# 1 2 7 8 10 13 15 16 19 21 23 26
+ 29 33 37 39 41 44 48 49 55 59 60 63 64
c175 44 0 1.49262e-19 $X=9.915 $Y=2.25
c176 21 0 1.36771e-19 $X=9.74 $Y=2.455
c177 19 0 6.11734e-20 $X=6.515 $Y=0.445
c178 15 0 7.21799e-20 $X=6.37 $Y=1.165
r179 63 65 46.2115 $w=3.3e-07 $l=1.65e-07 $layer=POLY_cond $X=9.775 $Y=1.29
+ $X2=9.775 $Y2=1.125
r180 63 64 145.28 $w=1.7e-07 $l=1.7e-07 $layer=licon1_POLY $count=1 $X=9.775
+ $Y=1.29 $X2=9.775 $Y2=1.29
r181 59 60 72.64 $w=1.7e-07 $l=3.4e-07 $layer=licon1_POLY $count=2 $X=5.395
+ $Y=1.58 $X2=5.395 $Y2=1.58
r182 55 64 9.3 $w=1.7e-07 $l=1.7e-07 $layer=mcon $count=1 $X=9.84 $Y=1.295
+ $X2=9.84 $Y2=1.295
r183 52 60 7.64176 $w=4.55e-07 $l=3.72552e-07 $layer=LI1_cond $X=5.04 $Y=1.295
+ $X2=5.242 $Y2=1.58
r184 51 52 9.3 $w=1.7e-07 $l=1.7e-07 $layer=mcon $count=1 $X=5.04 $Y=1.295
+ $X2=5.04 $Y2=1.295
r185 49 51 0.115467 $w=2.3e-07 $l=1.45e-07 $layer=MET1_cond $X=5.185 $Y=1.295
+ $X2=5.04 $Y2=1.295
r186 48 55 0.115467 $w=2.3e-07 $l=1.45e-07 $layer=MET1_cond $X=9.695 $Y=1.295
+ $X2=9.84 $Y2=1.295
r187 48 49 5.58167 $w=1.4e-07 $l=4.51e-06 $layer=MET1_cond $X=9.695 $Y=1.295
+ $X2=5.185 $Y2=1.295
r188 46 64 26.5563 $w=3.43e-07 $l=7.95e-07 $layer=LI1_cond $X=9.782 $Y=2.085
+ $X2=9.782 $Y2=1.29
r189 44 46 4.89723 $w=4.33e-07 $l=1.65e-07 $layer=LI1_cond $X=9.827 $Y=2.25
+ $X2=9.827 $Y2=2.085
r190 44 45 145.28 $w=1.7e-07 $l=1.7e-07 $layer=licon1_POLY $count=1 $X=9.915
+ $Y=2.25 $X2=9.915 $Y2=2.25
r191 40 41 2.83584 $w=1.7e-07 $l=1.7e-07 $layer=LI1_cond $X=4.865 $Y=2 $X2=4.695
+ $Y2=2
r192 39 60 11.2615 $w=4.55e-07 $l=4.2e-07 $layer=LI1_cond $X=5.242 $Y=2
+ $X2=5.242 $Y2=1.58
r193 39 40 11.7433 $w=1.68e-07 $l=1.8e-07 $layer=LI1_cond $X=5.045 $Y=2
+ $X2=4.865 $Y2=2
r194 35 41 3.64284 $w=2.55e-07 $l=8.5e-08 $layer=LI1_cond $X=4.695 $Y=2.085
+ $X2=4.695 $Y2=2
r195 35 37 11.6939 $w=3.38e-07 $l=3.45e-07 $layer=LI1_cond $X=4.695 $Y=2.085
+ $X2=4.695 $Y2=2.43
r196 31 41 3.64284 $w=2.55e-07 $l=1.20208e-07 $layer=LI1_cond $X=4.61 $Y=1.915
+ $X2=4.695 $Y2=2
r197 31 33 74.0481 $w=1.68e-07 $l=1.135e-06 $layer=LI1_cond $X=4.61 $Y=1.915
+ $X2=4.61 $Y2=0.78
r198 28 59 2.62292 $w=3.3e-07 $l=1.5e-08 $layer=POLY_cond $X=5.395 $Y=1.565
+ $X2=5.395 $Y2=1.58
r199 26 65 266.638 $w=1.5e-07 $l=5.2e-07 $layer=POLY_cond $X=9.745 $Y=0.605
+ $X2=9.745 $Y2=1.125
r200 21 45 26.034 $w=3.24e-07 $l=2.5807e-07 $layer=POLY_cond $X=9.74 $Y=2.455
+ $X2=9.915 $Y2=2.27
r201 21 23 106.04 $w=1.5e-07 $l=3.3e-07 $layer=POLY_cond $X=9.74 $Y=2.455
+ $X2=9.74 $Y2=2.785
r202 17 30 5.80308 $w=1.5e-07 $l=9e-08 $layer=POLY_cond $X=6.515 $Y=1.06
+ $X2=6.515 $Y2=1.15
r203 17 19 315.351 $w=1.5e-07 $l=6.15e-07 $layer=POLY_cond $X=6.515 $Y=1.06
+ $X2=6.515 $Y2=0.445
r204 15 30 41.8991 $w=1.7e-07 $l=1.52315e-07 $layer=POLY_cond $X=6.37 $Y=1.165
+ $X2=6.515 $Y2=1.15
r205 15 16 148.702 $w=1.5e-07 $l=2.9e-07 $layer=POLY_cond $X=6.37 $Y=1.165
+ $X2=6.08 $Y2=1.165
r206 11 29 20.4101 $w=1.5e-07 $l=7.5e-08 $layer=POLY_cond $X=6.005 $Y=1.565
+ $X2=6.005 $Y2=1.49
r207 11 13 476.872 $w=1.5e-07 $l=9.3e-07 $layer=POLY_cond $X=6.005 $Y=1.565
+ $X2=6.005 $Y2=2.495
r208 10 29 20.4101 $w=1.5e-07 $l=7.5e-08 $layer=POLY_cond $X=6.005 $Y=1.415
+ $X2=6.005 $Y2=1.49
r209 9 16 26.9307 $w=1.5e-07 $l=1.06066e-07 $layer=POLY_cond $X=6.005 $Y=1.24
+ $X2=6.08 $Y2=1.165
r210 9 10 89.734 $w=1.5e-07 $l=1.75e-07 $layer=POLY_cond $X=6.005 $Y=1.24
+ $X2=6.005 $Y2=1.415
r211 8 28 32.1775 $w=1.5e-07 $l=1.98997e-07 $layer=POLY_cond $X=5.56 $Y=1.49
+ $X2=5.395 $Y2=1.565
r212 7 29 5.30422 $w=1.5e-07 $l=7.5e-08 $layer=POLY_cond $X=5.93 $Y=1.49
+ $X2=6.005 $Y2=1.49
r213 7 8 189.723 $w=1.5e-07 $l=3.7e-07 $layer=POLY_cond $X=5.93 $Y=1.49 $X2=5.56
+ $Y2=1.49
r214 2 37 300 $w=1.7e-07 $l=2.05061e-07 $layer=licon1_PDIFF $count=2 $X=4.555
+ $Y=2.285 $X2=4.7 $Y2=2.43
r215 1 33 182 $w=1.7e-07 $l=3.39853e-07 $layer=licon1_NDIFF $count=1 $X=4.465
+ $Y=0.505 $X2=4.61 $Y2=0.78
.ends

.subckt PM_SKY130_FD_SC_LP__SDFBBP_1%A_1297_290# 1 2 9 13 17 19 20 23 26 27 28
+ 29 30 31 34 35 39 40 45 53 55 57
c179 45 0 6.02433e-20 $X=6.65 $Y=1.615
c180 35 0 1.36771e-19 $X=9.03 $Y=2.045
c181 30 0 1.11578e-19 $X=7.63 $Y=2.33
c182 29 0 1.98194e-19 $X=7.63 $Y=2.13
c183 26 0 5.71347e-21 $X=6.57 $Y=2.33
c184 23 0 1.77109e-19 $X=9.325 $Y=0.605
r185 57 58 7.77419 $w=3.1e-07 $l=5e-08 $layer=POLY_cond $X=6.825 $Y=1.615
+ $X2=6.875 $Y2=1.615
r186 51 53 9.7861 $w=1.68e-07 $l=1.5e-07 $layer=LI1_cond $X=8.11 $Y=0.73
+ $X2=8.26 $Y2=0.73
r187 46 57 27.2097 $w=3.1e-07 $l=1.75e-07 $layer=POLY_cond $X=6.65 $Y=1.615
+ $X2=6.825 $Y2=1.615
r188 45 46 145.28 $w=1.7e-07 $l=1.7e-07 $layer=licon1_POLY $count=1 $X=6.65
+ $Y=1.615 $X2=6.65 $Y2=1.615
r189 42 45 2.88111 $w=3.18e-07 $l=8e-08 $layer=LI1_cond $X=6.57 $Y=1.61 $X2=6.65
+ $Y2=1.61
r190 39 40 145.28 $w=1.7e-07 $l=1.7e-07 $layer=licon1_POLY $count=1 $X=9.195
+ $Y=1.29 $X2=9.195 $Y2=1.29
r191 37 39 23.3981 $w=3.28e-07 $l=6.7e-07 $layer=LI1_cond $X=9.195 $Y=1.96
+ $X2=9.195 $Y2=1.29
r192 36 55 5.16603 $w=1.7e-07 $l=8.5e-08 $layer=LI1_cond $X=8.345 $Y=2.045
+ $X2=8.26 $Y2=2.045
r193 35 37 7.76618 $w=1.7e-07 $l=2.03101e-07 $layer=LI1_cond $X=9.03 $Y=2.045
+ $X2=9.195 $Y2=1.96
r194 35 36 44.6898 $w=1.68e-07 $l=6.85e-07 $layer=LI1_cond $X=9.03 $Y=2.045
+ $X2=8.345 $Y2=2.045
r195 34 55 1.34256 $w=1.7e-07 $l=8.5e-08 $layer=LI1_cond $X=8.26 $Y=1.96
+ $X2=8.26 $Y2=2.045
r196 33 53 0.716491 $w=1.7e-07 $l=8.5e-08 $layer=LI1_cond $X=8.26 $Y=0.815
+ $X2=8.26 $Y2=0.73
r197 33 34 74.7005 $w=1.68e-07 $l=1.145e-06 $layer=LI1_cond $X=8.26 $Y=0.815
+ $X2=8.26 $Y2=1.96
r198 32 49 5.12568 $w=1.7e-07 $l=1.65e-07 $layer=LI1_cond $X=7.795 $Y=2.045
+ $X2=7.63 $Y2=2.045
r199 31 55 5.16603 $w=1.7e-07 $l=8.5e-08 $layer=LI1_cond $X=8.175 $Y=2.045
+ $X2=8.26 $Y2=2.045
r200 31 32 24.7914 $w=1.68e-07 $l=3.8e-07 $layer=LI1_cond $X=8.175 $Y=2.045
+ $X2=7.795 $Y2=2.045
r201 29 49 2.6405 $w=3.3e-07 $l=8.5e-08 $layer=LI1_cond $X=7.63 $Y=2.13 $X2=7.63
+ $Y2=2.045
r202 29 30 6.9845 $w=3.28e-07 $l=2e-07 $layer=LI1_cond $X=7.63 $Y=2.13 $X2=7.63
+ $Y2=2.33
r203 27 30 7.76618 $w=1.7e-07 $l=2.03101e-07 $layer=LI1_cond $X=7.465 $Y=2.415
+ $X2=7.63 $Y2=2.33
r204 27 28 52.8449 $w=1.68e-07 $l=8.1e-07 $layer=LI1_cond $X=7.465 $Y=2.415
+ $X2=6.655 $Y2=2.415
r205 26 28 6.81649 $w=1.7e-07 $l=1.20208e-07 $layer=LI1_cond $X=6.57 $Y=2.33
+ $X2=6.655 $Y2=2.415
r206 25 42 4.44149 $w=1.7e-07 $l=1.6e-07 $layer=LI1_cond $X=6.57 $Y=1.77
+ $X2=6.57 $Y2=1.61
r207 25 26 36.5348 $w=1.68e-07 $l=5.6e-07 $layer=LI1_cond $X=6.57 $Y=1.77
+ $X2=6.57 $Y2=2.33
r208 21 40 38.7026 $w=2.82e-07 $l=2.13014e-07 $layer=POLY_cond $X=9.325 $Y=1.125
+ $X2=9.215 $Y2=1.29
r209 21 23 266.638 $w=1.5e-07 $l=5.2e-07 $layer=POLY_cond $X=9.325 $Y=1.125
+ $X2=9.325 $Y2=0.605
r210 19 40 52.9858 $w=2.82e-07 $l=3.91727e-07 $layer=POLY_cond $X=9.03 $Y=1.6
+ $X2=9.215 $Y2=1.29
r211 19 20 102.553 $w=1.5e-07 $l=2e-07 $layer=POLY_cond $X=9.03 $Y=1.6 $X2=8.83
+ $Y2=1.6
r212 15 20 26.9307 $w=1.5e-07 $l=1.06066e-07 $layer=POLY_cond $X=8.755 $Y=1.675
+ $X2=8.83 $Y2=1.6
r213 15 17 312.787 $w=1.5e-07 $l=6.1e-07 $layer=POLY_cond $X=8.755 $Y=1.675
+ $X2=8.755 $Y2=2.285
r214 11 58 19.7411 $w=1.5e-07 $l=1.65e-07 $layer=POLY_cond $X=6.875 $Y=1.45
+ $X2=6.875 $Y2=1.615
r215 11 13 515.33 $w=1.5e-07 $l=1.005e-06 $layer=POLY_cond $X=6.875 $Y=1.45
+ $X2=6.875 $Y2=0.445
r216 7 57 19.7411 $w=1.5e-07 $l=1.65e-07 $layer=POLY_cond $X=6.825 $Y=1.78
+ $X2=6.825 $Y2=1.615
r217 7 9 366.628 $w=1.5e-07 $l=7.15e-07 $layer=POLY_cond $X=6.825 $Y=1.78
+ $X2=6.825 $Y2=2.495
r218 2 49 300 $w=1.7e-07 $l=3.2249e-07 $layer=licon1_PDIFF $count=2 $X=7.49
+ $Y=1.865 $X2=7.63 $Y2=2.125
r219 1 51 182 $w=1.7e-07 $l=5.94916e-07 $layer=licon1_NDIFF $count=1 $X=7.89
+ $Y=0.235 $X2=8.11 $Y2=0.73
.ends

.subckt PM_SKY130_FD_SC_LP__SDFBBP_1%SET_B 3 7 11 13 15 18 19 21 22 28 32 38 44
c136 38 0 1.48965e-19 $X=11.245 $Y=1.93
c137 28 0 5.60316e-21 $X=11.28 $Y=2.035
c138 22 0 3.09772e-19 $X=7.105 $Y=2.035
c139 11 0 1.26004e-19 $X=11.32 $Y=0.605
c140 7 0 5.15316e-20 $X=7.415 $Y=2.285
r141 37 38 145.28 $w=1.7e-07 $l=1.7e-07 $layer=licon1_POLY $count=1 $X=11.245
+ $Y=1.93 $X2=11.245 $Y2=1.93
r142 33 46 6.97157 $w=4.03e-07 $l=2.45e-07 $layer=LI1_cond $X=7.325 $Y=1.577
+ $X2=7.08 $Y2=1.577
r143 32 35 46.2115 $w=3.3e-07 $l=1.65e-07 $layer=POLY_cond $X=7.325 $Y=1.54
+ $X2=7.325 $Y2=1.705
r144 32 34 46.2115 $w=3.3e-07 $l=1.65e-07 $layer=POLY_cond $X=7.325 $Y=1.54
+ $X2=7.325 $Y2=1.375
r145 32 33 145.28 $w=1.7e-07 $l=1.7e-07 $layer=licon1_POLY $count=1 $X=7.325
+ $Y=1.54 $X2=7.325 $Y2=1.54
r146 28 38 9.3 $w=1.7e-07 $l=1.7e-07 $layer=mcon $count=1 $X=11.28 $Y=2.035
+ $X2=11.28 $Y2=2.035
r147 25 44 6.65455 $w=1.98e-07 $l=1.2e-07 $layer=LI1_cond $X=6.96 $Y=2.05
+ $X2=7.08 $Y2=2.05
r148 24 25 9.3 $w=1.7e-07 $l=1.7e-07 $layer=mcon $count=1 $X=6.96 $Y=2.035
+ $X2=6.96 $Y2=2.035
r149 22 24 0.115467 $w=2.3e-07 $l=1.45e-07 $layer=MET1_cond $X=7.105 $Y=2.035
+ $X2=6.96 $Y2=2.035
r150 21 28 0.115467 $w=2.3e-07 $l=1.45e-07 $layer=MET1_cond $X=11.135 $Y=2.035
+ $X2=11.28 $Y2=2.035
r151 21 22 4.98761 $w=1.4e-07 $l=4.03e-06 $layer=MET1_cond $X=11.135 $Y=2.035
+ $X2=7.105 $Y2=2.035
r152 19 33 3.27237 $w=4.03e-07 $l=1.15e-07 $layer=LI1_cond $X=7.44 $Y=1.577
+ $X2=7.325 $Y2=1.577
r153 18 44 1.68994 $w=1.7e-07 $l=1e-07 $layer=LI1_cond $X=7.08 $Y=1.95 $X2=7.08
+ $Y2=2.05
r154 17 46 5.85399 $w=1.7e-07 $l=2.03e-07 $layer=LI1_cond $X=7.08 $Y=1.78
+ $X2=7.08 $Y2=1.577
r155 17 18 11.0909 $w=1.68e-07 $l=1.7e-07 $layer=LI1_cond $X=7.08 $Y=1.78
+ $X2=7.08 $Y2=1.95
r156 13 37 38.8445 $w=3.55e-07 $l=2.1609e-07 $layer=POLY_cond $X=11.39 $Y=2.095
+ $X2=11.272 $Y2=1.93
r157 13 15 297.404 $w=1.5e-07 $l=5.8e-07 $layer=POLY_cond $X=11.39 $Y=2.095
+ $X2=11.39 $Y2=2.675
r158 9 37 38.8445 $w=3.55e-07 $l=1.8747e-07 $layer=POLY_cond $X=11.32 $Y=1.765
+ $X2=11.272 $Y2=1.93
r159 9 11 594.809 $w=1.5e-07 $l=1.16e-06 $layer=POLY_cond $X=11.32 $Y=1.765
+ $X2=11.32 $Y2=0.605
r160 7 35 297.404 $w=1.5e-07 $l=5.8e-07 $layer=POLY_cond $X=7.415 $Y=2.285
+ $X2=7.415 $Y2=1.705
r161 3 34 420.468 $w=1.5e-07 $l=8.2e-07 $layer=POLY_cond $X=7.385 $Y=0.555
+ $X2=7.385 $Y2=1.375
.ends

.subckt PM_SKY130_FD_SC_LP__SDFBBP_1%A_1216_457# 1 2 9 13 17 18 21 25 27 31 33
+ 34
c95 34 0 1.67734e-19 $X=7.865 $Y=1.19
c96 33 0 1.71701e-19 $X=7.865 $Y=1.19
r97 33 34 72.64 $w=1.7e-07 $l=3.4e-07 $layer=licon1_POLY $count=2 $X=7.865
+ $Y=1.19 $X2=7.865 $Y2=1.19
r98 28 31 2.76166 $w=1.7e-07 $l=1.65e-07 $layer=LI1_cond $X=6.465 $Y=1.11
+ $X2=6.3 $Y2=1.11
r99 27 33 4.68908 $w=1.7e-07 $l=1.45e-07 $layer=LI1_cond $X=7.705 $Y=1.11
+ $X2=7.85 $Y2=1.11
r100 27 28 80.8984 $w=1.68e-07 $l=1.24e-06 $layer=LI1_cond $X=7.705 $Y=1.11
+ $X2=6.465 $Y2=1.11
r101 23 31 3.70735 $w=2.5e-07 $l=1.18427e-07 $layer=LI1_cond $X=6.22 $Y=1.195
+ $X2=6.3 $Y2=1.11
r102 23 25 84.8128 $w=1.68e-07 $l=1.3e-06 $layer=LI1_cond $X=6.22 $Y=1.195
+ $X2=6.22 $Y2=2.495
r103 19 31 3.70735 $w=2.5e-07 $l=8.5e-08 $layer=LI1_cond $X=6.3 $Y=1.025 $X2=6.3
+ $Y2=1.11
r104 19 21 19.382 $w=3.28e-07 $l=5.55e-07 $layer=LI1_cond $X=6.3 $Y=1.025
+ $X2=6.3 $Y2=0.47
r105 17 34 59.4528 $w=3.3e-07 $l=3.4e-07 $layer=POLY_cond $X=7.865 $Y=1.53
+ $X2=7.865 $Y2=1.19
r106 17 18 38.6168 $w=3.3e-07 $l=1.65e-07 $layer=POLY_cond $X=7.865 $Y=1.53
+ $X2=7.865 $Y2=1.695
r107 16 34 40.8701 $w=3.3e-07 $l=1.65e-07 $layer=POLY_cond $X=7.865 $Y=1.025
+ $X2=7.865 $Y2=1.19
r108 13 18 302.532 $w=1.5e-07 $l=5.9e-07 $layer=POLY_cond $X=7.845 $Y=2.285
+ $X2=7.845 $Y2=1.695
r109 9 16 241 $w=1.5e-07 $l=4.7e-07 $layer=POLY_cond $X=7.815 $Y=0.555 $X2=7.815
+ $Y2=1.025
r110 2 25 600 $w=1.7e-07 $l=2.71109e-07 $layer=licon1_PDIFF $count=1 $X=6.08
+ $Y=2.285 $X2=6.22 $Y2=2.495
r111 1 21 182 $w=1.7e-07 $l=2.96859e-07 $layer=licon1_NDIFF $count=1 $X=6.16
+ $Y=0.235 $X2=6.3 $Y2=0.47
.ends

.subckt PM_SKY130_FD_SC_LP__SDFBBP_1%A_1650_21# 1 2 7 9 12 16 18 20 24 31 32 34
+ 35 37 38 39 41 42 43 44 47 49 51 53 57 62
c173 44 0 1.8236e-19 $X=12.5 $Y=0.915
c174 32 0 1.71701e-19 $X=8.655 $Y=1.15
c175 24 0 1.75295e-19 $X=12.635 $Y=1.785
r176 62 64 4.60977 $w=2.48e-07 $l=1e-07 $layer=LI1_cond $X=13.145 $Y=0.815
+ $X2=13.145 $Y2=0.915
r177 53 55 11.0909 $w=1.68e-07 $l=1.7e-07 $layer=LI1_cond $X=11.675 $Y=0.915
+ $X2=11.675 $Y2=1.085
r178 52 57 8.04615 $w=1.7e-07 $l=1.5e-07 $layer=LI1_cond $X=12.8 $Y=0.915
+ $X2=12.65 $Y2=0.915
r179 51 64 2.99516 $w=1.7e-07 $l=1.25e-07 $layer=LI1_cond $X=13.02 $Y=0.915
+ $X2=13.145 $Y2=0.915
r180 51 52 14.3529 $w=1.68e-07 $l=2.2e-07 $layer=LI1_cond $X=13.02 $Y=0.915
+ $X2=12.8 $Y2=0.915
r181 49 50 72.64 $w=1.7e-07 $l=3.4e-07 $layer=licon1_POLY $count=2 $X=12.635
+ $Y=1.43 $X2=12.635 $Y2=1.43
r182 47 60 21.187 $w=2.62e-07 $l=4.55e-07 $layer=LI1_cond $X=12.65 $Y=1.935
+ $X2=13.105 $Y2=1.935
r183 47 49 12.8689 $w=2.98e-07 $l=3.35e-07 $layer=LI1_cond $X=12.65 $Y=1.765
+ $X2=12.65 $Y2=1.43
r184 46 57 0.597483 $w=3e-07 $l=8.5e-08 $layer=LI1_cond $X=12.65 $Y=1 $X2=12.65
+ $Y2=0.915
r185 46 49 16.5184 $w=2.98e-07 $l=4.3e-07 $layer=LI1_cond $X=12.65 $Y=1
+ $X2=12.65 $Y2=1.43
r186 45 53 0.716491 $w=1.7e-07 $l=8.5e-08 $layer=LI1_cond $X=11.76 $Y=0.915
+ $X2=11.675 $Y2=0.915
r187 44 57 8.04615 $w=1.7e-07 $l=1.5e-07 $layer=LI1_cond $X=12.5 $Y=0.915
+ $X2=12.65 $Y2=0.915
r188 44 45 48.2781 $w=1.68e-07 $l=7.4e-07 $layer=LI1_cond $X=12.5 $Y=0.915
+ $X2=11.76 $Y2=0.915
r189 42 55 0.716491 $w=1.7e-07 $l=8.5e-08 $layer=LI1_cond $X=11.59 $Y=1.085
+ $X2=11.675 $Y2=1.085
r190 42 43 61 $w=1.68e-07 $l=9.35e-07 $layer=LI1_cond $X=11.59 $Y=1.085
+ $X2=10.655 $Y2=1.085
r191 41 43 6.81649 $w=1.7e-07 $l=1.20208e-07 $layer=LI1_cond $X=10.57 $Y=1
+ $X2=10.655 $Y2=1.085
r192 40 41 36.861 $w=1.68e-07 $l=5.65e-07 $layer=LI1_cond $X=10.57 $Y=0.435
+ $X2=10.57 $Y2=1
r193 38 40 6.81649 $w=1.7e-07 $l=1.20208e-07 $layer=LI1_cond $X=10.485 $Y=0.35
+ $X2=10.57 $Y2=0.435
r194 38 39 56.7594 $w=1.68e-07 $l=8.7e-07 $layer=LI1_cond $X=10.485 $Y=0.35
+ $X2=9.615 $Y2=0.35
r195 36 39 6.81649 $w=1.7e-07 $l=1.20208e-07 $layer=LI1_cond $X=9.53 $Y=0.435
+ $X2=9.615 $Y2=0.35
r196 36 37 22.1818 $w=1.68e-07 $l=3.4e-07 $layer=LI1_cond $X=9.53 $Y=0.435
+ $X2=9.53 $Y2=0.775
r197 34 37 6.81649 $w=1.7e-07 $l=1.20208e-07 $layer=LI1_cond $X=9.445 $Y=0.86
+ $X2=9.53 $Y2=0.775
r198 34 35 40.7754 $w=1.68e-07 $l=6.25e-07 $layer=LI1_cond $X=9.445 $Y=0.86
+ $X2=8.82 $Y2=0.86
r199 32 67 57.7042 $w=3.3e-07 $l=3.3e-07 $layer=POLY_cond $X=8.655 $Y=1.15
+ $X2=8.325 $Y2=1.15
r200 31 32 145.28 $w=1.7e-07 $l=1.7e-07 $layer=licon1_POLY $count=1 $X=8.655
+ $Y=1.15 $X2=8.655 $Y2=1.15
r201 29 35 7.47753 $w=1.7e-07 $l=1.85699e-07 $layer=LI1_cond $X=8.672 $Y=0.945
+ $X2=8.82 $Y2=0.86
r202 29 31 8.0085 $w=2.93e-07 $l=2.05e-07 $layer=LI1_cond $X=8.672 $Y=0.945
+ $X2=8.672 $Y2=1.15
r203 24 50 62.0758 $w=3.3e-07 $l=3.55e-07 $layer=POLY_cond $X=12.635 $Y=1.785
+ $X2=12.635 $Y2=1.43
r204 21 24 161.521 $w=1.5e-07 $l=3.15e-07 $layer=POLY_cond $X=12.32 $Y=1.86
+ $X2=12.635 $Y2=1.86
r205 18 50 58.4553 $w=2.35e-07 $l=5.54482e-07 $layer=POLY_cond $X=12.35 $Y=1
+ $X2=12.635 $Y2=1.43
r206 18 20 126.927 $w=1.5e-07 $l=3.95e-07 $layer=POLY_cond $X=12.35 $Y=1
+ $X2=12.35 $Y2=0.605
r207 14 21 2.83073 $w=1.5e-07 $l=7.5e-08 $layer=POLY_cond $X=12.32 $Y=1.935
+ $X2=12.32 $Y2=1.86
r208 14 16 379.447 $w=1.5e-07 $l=7.4e-07 $layer=POLY_cond $X=12.32 $Y=1.935
+ $X2=12.32 $Y2=2.675
r209 10 67 21.2229 $w=1.5e-07 $l=1.65e-07 $layer=POLY_cond $X=8.325 $Y=1.315
+ $X2=8.325 $Y2=1.15
r210 10 12 497.383 $w=1.5e-07 $l=9.7e-07 $layer=POLY_cond $X=8.325 $Y=1.315
+ $X2=8.325 $Y2=2.285
r211 7 67 21.2229 $w=1.5e-07 $l=1.65e-07 $layer=POLY_cond $X=8.325 $Y=0.985
+ $X2=8.325 $Y2=1.15
r212 7 9 138.173 $w=1.5e-07 $l=4.3e-07 $layer=POLY_cond $X=8.325 $Y=0.985
+ $X2=8.325 $Y2=0.555
r213 2 60 600 $w=1.7e-07 $l=2.73038e-07 $layer=licon1_PDIFF $count=1 $X=12.96
+ $Y=1.785 $X2=13.105 $Y2=1.995
r214 1 62 182 $w=1.7e-07 $l=2.20907e-07 $layer=licon1_NDIFF $count=1 $X=12.96
+ $Y=0.655 $X2=13.105 $Y2=0.815
.ends

.subckt PM_SKY130_FD_SC_LP__SDFBBP_1%A_755_106# 1 2 7 8 9 11 15 16 18 19 21 22
+ 23 24 26 29 31 36 37 38 41 44 45 49 53 56 58
c159 37 0 1.03084e-19 $X=10.18 $Y=1.77
c160 29 0 1.44251e-20 $X=6.435 $Y=2.495
r161 56 58 31.1954 $w=2.88e-07 $l=7.85e-07 $layer=LI1_cond $X=4.2 $Y=2.515
+ $X2=4.2 $Y2=1.73
r162 52 53 72.64 $w=1.7e-07 $l=3.4e-07 $layer=licon1_POLY $count=2 $X=4.18
+ $Y=1.225 $X2=4.18 $Y2=1.225
r163 49 52 13.1924 $w=3.78e-07 $l=4.35e-07 $layer=LI1_cond $X=4.155 $Y=0.79
+ $X2=4.155 $Y2=1.225
r164 47 58 6.43709 $w=3.78e-07 $l=1.9e-07 $layer=LI1_cond $X=4.155 $Y=1.54
+ $X2=4.155 $Y2=1.73
r165 47 52 9.55315 $w=3.78e-07 $l=3.15e-07 $layer=LI1_cond $X=4.155 $Y=1.54
+ $X2=4.155 $Y2=1.225
r166 43 53 8.74306 $w=3.3e-07 $l=5e-08 $layer=POLY_cond $X=4.18 $Y=1.175
+ $X2=4.18 $Y2=1.225
r167 39 41 502.511 $w=1.5e-07 $l=9.8e-07 $layer=POLY_cond $X=10.255 $Y=1.695
+ $X2=10.255 $Y2=0.715
r168 38 46 69.8667 $w=2.35e-07 $l=3.75566e-07 $layer=POLY_cond $X=9.54 $Y=1.77
+ $X2=9.23 $Y2=1.915
r169 37 39 26.9307 $w=1.5e-07 $l=1.06066e-07 $layer=POLY_cond $X=10.18 $Y=1.77
+ $X2=10.255 $Y2=1.695
r170 37 38 328.17 $w=1.5e-07 $l=6.4e-07 $layer=POLY_cond $X=10.18 $Y=1.77
+ $X2=9.54 $Y2=1.77
r171 34 36 256.383 $w=1.5e-07 $l=5e-07 $layer=POLY_cond $X=9.23 $Y=3.075
+ $X2=9.23 $Y2=2.575
r172 33 46 13.2911 $w=1.5e-07 $l=1.5e-07 $layer=POLY_cond $X=9.23 $Y=2.065
+ $X2=9.23 $Y2=1.915
r173 33 36 261.511 $w=1.5e-07 $l=5.1e-07 $layer=POLY_cond $X=9.23 $Y=2.065
+ $X2=9.23 $Y2=2.575
r174 32 45 20.4101 $w=1.5e-07 $l=7.5e-08 $layer=POLY_cond $X=6.51 $Y=3.15
+ $X2=6.435 $Y2=3.15
r175 31 34 26.9307 $w=1.5e-07 $l=1.06066e-07 $layer=POLY_cond $X=9.155 $Y=3.15
+ $X2=9.23 $Y2=3.075
r176 31 32 1356.27 $w=1.5e-07 $l=2.645e-06 $layer=POLY_cond $X=9.155 $Y=3.15
+ $X2=6.51 $Y2=3.15
r177 27 45 5.30422 $w=1.5e-07 $l=7.5e-08 $layer=POLY_cond $X=6.435 $Y=3.075
+ $X2=6.435 $Y2=3.15
r178 27 29 297.404 $w=1.5e-07 $l=5.8e-07 $layer=POLY_cond $X=6.435 $Y=3.075
+ $X2=6.435 $Y2=2.495
r179 24 26 91.58 $w=1.5e-07 $l=2.85e-07 $layer=POLY_cond $X=6.085 $Y=0.73
+ $X2=6.085 $Y2=0.445
r180 22 24 26.9307 $w=1.5e-07 $l=1.06066e-07 $layer=POLY_cond $X=6.01 $Y=0.805
+ $X2=6.085 $Y2=0.73
r181 22 23 169.213 $w=1.5e-07 $l=3.3e-07 $layer=POLY_cond $X=6.01 $Y=0.805
+ $X2=5.68 $Y2=0.805
r182 20 23 26.9307 $w=1.5e-07 $l=1.06066e-07 $layer=POLY_cond $X=5.605 $Y=0.88
+ $X2=5.68 $Y2=0.805
r183 20 21 74.3511 $w=1.5e-07 $l=1.45e-07 $layer=POLY_cond $X=5.605 $Y=0.88
+ $X2=5.605 $Y2=1.025
r184 18 45 20.4101 $w=1.5e-07 $l=7.5e-08 $layer=POLY_cond $X=6.36 $Y=3.15
+ $X2=6.435 $Y2=3.15
r185 18 19 702.489 $w=1.5e-07 $l=1.37e-06 $layer=POLY_cond $X=6.36 $Y=3.15
+ $X2=4.99 $Y2=3.15
r186 17 44 12.05 $w=1.5e-07 $l=1.2e-07 $layer=POLY_cond $X=4.99 $Y=1.1 $X2=4.87
+ $Y2=1.1
r187 16 21 26.9307 $w=1.5e-07 $l=1.06066e-07 $layer=POLY_cond $X=5.53 $Y=1.1
+ $X2=5.605 $Y2=1.025
r188 16 17 276.894 $w=1.5e-07 $l=5.4e-07 $layer=POLY_cond $X=5.53 $Y=1.1
+ $X2=4.99 $Y2=1.1
r189 13 19 26.9307 $w=1.5e-07 $l=1.06066e-07 $layer=POLY_cond $X=4.915 $Y=3.075
+ $X2=4.99 $Y2=3.15
r190 13 15 241 $w=1.5e-07 $l=4.7e-07 $layer=POLY_cond $X=4.915 $Y=3.075
+ $X2=4.915 $Y2=2.605
r191 12 44 12.05 $w=1.5e-07 $l=9.48683e-08 $layer=POLY_cond $X=4.915 $Y=1.175
+ $X2=4.87 $Y2=1.1
r192 12 15 733.255 $w=1.5e-07 $l=1.43e-06 $layer=POLY_cond $X=4.915 $Y=1.175
+ $X2=4.915 $Y2=2.605
r193 9 44 12.05 $w=1.5e-07 $l=9.48683e-08 $layer=POLY_cond $X=4.825 $Y=1.025
+ $X2=4.87 $Y2=1.1
r194 9 11 99.6133 $w=1.5e-07 $l=3.1e-07 $layer=POLY_cond $X=4.825 $Y=1.025
+ $X2=4.825 $Y2=0.715
r195 8 43 32.1775 $w=1.5e-07 $l=1.98997e-07 $layer=POLY_cond $X=4.345 $Y=1.1
+ $X2=4.18 $Y2=1.175
r196 7 44 12.05 $w=1.5e-07 $l=1.2e-07 $layer=POLY_cond $X=4.75 $Y=1.1 $X2=4.87
+ $Y2=1.1
r197 7 8 207.67 $w=1.5e-07 $l=4.05e-07 $layer=POLY_cond $X=4.75 $Y=1.1 $X2=4.345
+ $Y2=1.1
r198 2 56 300 $w=1.7e-07 $l=2.03286e-07 $layer=licon1_PDIFF $count=2 $X=4
+ $Y=2.37 $X2=4.14 $Y2=2.515
r199 1 49 182 $w=1.7e-07 $l=3.83569e-07 $layer=licon1_NDIFF $count=1 $X=3.775
+ $Y=0.53 $X2=4.05 $Y2=0.79
.ends

.subckt PM_SKY130_FD_SC_LP__SDFBBP_1%A_2064_453# 1 2 9 13 17 21 23 27 31 36 40
+ 43 44 46 47 50 53 54 57 59 63 65 69 73
c172 63 0 1.75295e-19 $X=12.235 $Y=1.37
c173 43 0 2.17177e-19 $X=10.705 $Y=1.91
c174 36 0 1.49262e-19 $X=10.705 $Y=2.265
r175 73 74 30.474 $w=3.3e-07 $l=7.5e-08 $layer=POLY_cond $X=13.8 $Y=1.33
+ $X2=13.8 $Y2=1.255
r176 70 76 46.2115 $w=3.3e-07 $l=1.65e-07 $layer=POLY_cond $X=13.8 $Y=1.42
+ $X2=13.8 $Y2=1.585
r177 70 73 15.7375 $w=3.3e-07 $l=9e-08 $layer=POLY_cond $X=13.8 $Y=1.42 $X2=13.8
+ $Y2=1.33
r178 69 70 145.28 $w=1.7e-07 $l=1.7e-07 $layer=licon1_POLY $count=1 $X=13.8
+ $Y=1.42 $X2=13.8 $Y2=1.42
r179 66 69 3.66686 $w=3.28e-07 $l=1.05e-07 $layer=LI1_cond $X=13.695 $Y=1.42
+ $X2=13.8 $Y2=1.42
r180 61 63 4.53993 $w=3.28e-07 $l=1.3e-07 $layer=LI1_cond $X=12.105 $Y=1.37
+ $X2=12.235 $Y2=1.37
r181 56 66 4.62375 $w=1.7e-07 $l=1.65e-07 $layer=LI1_cond $X=13.695 $Y=1.585
+ $X2=13.695 $Y2=1.42
r182 56 57 48.6043 $w=1.68e-07 $l=7.45e-07 $layer=LI1_cond $X=13.695 $Y=1.585
+ $X2=13.695 $Y2=2.33
r183 55 65 5.16603 $w=1.7e-07 $l=8.5e-08 $layer=LI1_cond $X=12.32 $Y=2.415
+ $X2=12.235 $Y2=2.415
r184 54 57 6.81649 $w=1.7e-07 $l=1.20208e-07 $layer=LI1_cond $X=13.61 $Y=2.415
+ $X2=13.695 $Y2=2.33
r185 54 55 84.1604 $w=1.68e-07 $l=1.29e-06 $layer=LI1_cond $X=13.61 $Y=2.415
+ $X2=12.32 $Y2=2.415
r186 53 65 1.34256 $w=1.7e-07 $l=8.5e-08 $layer=LI1_cond $X=12.235 $Y=2.33
+ $X2=12.235 $Y2=2.415
r187 52 63 4.62375 $w=1.7e-07 $l=1.65e-07 $layer=LI1_cond $X=12.235 $Y=1.535
+ $X2=12.235 $Y2=1.37
r188 52 53 51.8663 $w=1.68e-07 $l=7.95e-07 $layer=LI1_cond $X=12.235 $Y=1.535
+ $X2=12.235 $Y2=2.33
r189 51 59 8.61065 $w=1.7e-07 $l=1.65e-07 $layer=LI1_cond $X=11.85 $Y=2.415
+ $X2=11.685 $Y2=2.415
r190 50 65 5.16603 $w=1.7e-07 $l=8.5e-08 $layer=LI1_cond $X=12.15 $Y=2.415
+ $X2=12.235 $Y2=2.415
r191 50 51 19.5722 $w=1.68e-07 $l=3e-07 $layer=LI1_cond $X=12.15 $Y=2.415
+ $X2=11.85 $Y2=2.415
r192 46 59 8.61065 $w=1.7e-07 $l=1.65e-07 $layer=LI1_cond $X=11.52 $Y=2.415
+ $X2=11.685 $Y2=2.415
r193 46 47 42.4064 $w=1.68e-07 $l=6.5e-07 $layer=LI1_cond $X=11.52 $Y=2.415
+ $X2=10.87 $Y2=2.415
r194 43 44 72.64 $w=1.7e-07 $l=3.4e-07 $layer=licon1_POLY $count=2 $X=10.705
+ $Y=1.91 $X2=10.705 $Y2=1.91
r195 41 47 7.47753 $w=1.7e-07 $l=1.85699e-07 $layer=LI1_cond $X=10.722 $Y=2.33
+ $X2=10.87 $Y2=2.415
r196 41 43 16.4077 $w=2.93e-07 $l=4.2e-07 $layer=LI1_cond $X=10.722 $Y=2.33
+ $X2=10.722 $Y2=1.91
r197 39 44 41.8716 $w=3.3e-07 $l=1.65e-07 $layer=POLY_cond $X=10.705 $Y=1.745
+ $X2=10.705 $Y2=1.91