* File: sky130_fd_sc_lp__busdrivernovlpsleep_20.pex.spice
* Created: Fri Aug 28 10:13:39 2020
* Program "Calibre xRC"
* Version "v2018.4_34.26"
* Nominal Temperature: 27C
* Circuit Temperature: 27C
* 
.subckt PM_SKY130_FD_SC_LP__BUSDRIVERNOVLPSLEEP_20%SLEEP 3 7 11 15 19 23 27 31
+ 35 37 42 45 46 47 48 53 54 56 60 66 69 74
c226 60 0 1.07875e-19 $X=5.51 $Y=1.93
c227 53 0 1.92998e-19 $X=11.865 $Y=2.035
c228 48 0 1.73847e-19 $X=5.645 $Y=2.035
c229 47 0 2.97955e-19 $X=11.72 $Y=2.035
c230 46 0 6.74658e-20 $X=0.915 $Y=2.035
c231 42 0 9.84968e-20 $X=11.95 $Y=1.445
c232 37 0 4.91905e-20 $X=5.71 $Y=1.93
r233 69 70 63.3823 $w=3.27e-07 $l=4.3e-07 $layer=POLY_cond $X=1.325 $Y=1.415
+ $X2=1.755 $Y2=1.415
r234 68 69 38.3242 $w=3.27e-07 $l=2.6e-07 $layer=POLY_cond $X=1.065 $Y=1.415
+ $X2=1.325 $Y2=1.415
r235 67 68 33.9021 $w=3.27e-07 $l=2.3e-07 $layer=POLY_cond $X=0.835 $Y=1.415
+ $X2=1.065 $Y2=1.415
r236 66 79 21.652 $w=3.28e-07 $l=6.2e-07 $layer=LI1_cond $X=0.76 $Y=1.415
+ $X2=0.76 $Y2=2.035
r237 65 67 11.055 $w=3.27e-07 $l=7.5e-08 $layer=POLY_cond $X=0.76 $Y=1.415
+ $X2=0.835 $Y2=1.415
r238 65 66 145.28 $w=1.7e-07 $l=1.7e-07 $layer=licon1_POLY $count=1 $X=0.76
+ $Y=1.415 $X2=0.76 $Y2=1.415
r239 63 65 34.6391 $w=3.27e-07 $l=2.35e-07 $layer=POLY_cond $X=0.525 $Y=1.415
+ $X2=0.76 $Y2=1.415
r240 62 63 7.37003 $w=3.27e-07 $l=5e-08 $layer=POLY_cond $X=0.475 $Y=1.415
+ $X2=0.525 $Y2=1.415
r241 59 60 145.28 $w=1.7e-07 $l=1.7e-07 $layer=licon1_POLY $count=1 $X=5.51
+ $Y=1.93 $X2=5.51 $Y2=1.93
r242 56 79 9.3 $w=1.7e-07 $l=1.7e-07 $layer=mcon $count=1 $X=0.77 $Y=2.035
+ $X2=0.77 $Y2=2.035
r243 53 54 9.3 $w=1.7e-07 $l=1.7e-07 $layer=mcon $count=1 $X=11.865 $Y=2.035
+ $X2=11.865 $Y2=2.035
r244 50 60 9.3 $w=1.7e-07 $l=1.7e-07 $layer=mcon $count=1 $X=5.5 $Y=2.035
+ $X2=5.5 $Y2=2.035
r245 48 50 0.103375 $w=2.3e-07 $l=1.45e-07 $layer=MET1_cond $X=5.645 $Y=2.035
+ $X2=5.5 $Y2=2.035
r246 47 53 0.103375 $w=2.3e-07 $l=1.45e-07 $layer=MET1_cond $X=11.72 $Y=2.035
+ $X2=11.865 $Y2=2.035
r247 47 48 5.84951 $w=1.7e-07 $l=6.075e-06 $layer=MET1_cond $X=11.72 $Y=2.035
+ $X2=5.645 $Y2=2.035
r248 46 56 0.135456 $w=2.3e-07 $l=1.95e-07 $layer=MET1_cond $X=0.915 $Y=2.035
+ $X2=0.72 $Y2=2.035
r249 45 50 0.103375 $w=2.3e-07 $l=1.45e-07 $layer=MET1_cond $X=5.355 $Y=2.035
+ $X2=5.5 $Y2=2.035
r250 45 46 4.2752 $w=1.7e-07 $l=4.44e-06 $layer=MET1_cond $X=5.355 $Y=2.035
+ $X2=0.915 $Y2=2.035
r251 43 74 18.5385 $w=3.9e-07 $l=1.3e-07 $layer=POLY_cond $X=11.95 $Y=1.475
+ $X2=12.08 $Y2=1.475
r252 43 71 42.7811 $w=3.9e-07 $l=3e-07 $layer=POLY_cond $X=11.95 $Y=1.475
+ $X2=11.65 $Y2=1.475
r253 42 43 72.64 $w=1.7e-07 $l=3.4e-07 $layer=licon1_POLY $count=2 $X=11.95
+ $Y=1.445 $X2=11.95 $Y2=1.445
r254 39 54 14.0297 $w=3.43e-07 $l=4.2e-07 $layer=LI1_cond $X=11.882 $Y=1.615
+ $X2=11.882 $Y2=2.035
r255 39 42 2.70228 $w=2.88e-07 $l=6.8e-08 $layer=LI1_cond $X=11.882 $Y=1.47
+ $X2=11.95 $Y2=1.47
r256 37 59 34.9723 $w=3.3e-07 $l=2e-07 $layer=POLY_cond $X=5.71 $Y=1.93 $X2=5.51
+ $Y2=1.93
r257 33 74 25.2441 $w=1.5e-07 $l=1.95e-07 $layer=POLY_cond $X=12.08 $Y=1.67
+ $X2=12.08 $Y2=1.475
r258 33 35 407.649 $w=1.5e-07 $l=7.95e-07 $layer=POLY_cond $X=12.08 $Y=1.67
+ $X2=12.08 $Y2=2.465
r259 29 71 25.2441 $w=1.5e-07 $l=1.95e-07 $layer=POLY_cond $X=11.65 $Y=1.67
+ $X2=11.65 $Y2=1.475
r260 29 31 407.649 $w=1.5e-07 $l=7.95e-07 $layer=POLY_cond $X=11.65 $Y=1.67
+ $X2=11.65 $Y2=2.465
r261 25 37 32.1775 $w=3.3e-07 $l=1.98997e-07 $layer=POLY_cond $X=5.785 $Y=2.095
+ $X2=5.71 $Y2=1.93
r262 25 27 297.404 $w=1.5e-07 $l=5.8e-07 $layer=POLY_cond $X=5.785 $Y=2.095
+ $X2=5.785 $Y2=2.675
r263 21 70 21.0057 $w=1.5e-07 $l=1.65e-07 $layer=POLY_cond $X=1.755 $Y=1.25
+ $X2=1.755 $Y2=1.415
r264 21 23 305.096 $w=1.5e-07 $l=5.95e-07 $layer=POLY_cond $X=1.755 $Y=1.25
+ $X2=1.755 $Y2=0.655
r265 17 69 21.0057 $w=1.5e-07 $l=1.65e-07 $layer=POLY_cond $X=1.325 $Y=1.25
+ $X2=1.325 $Y2=1.415
r266 17 19 305.096 $w=1.5e-07 $l=5.95e-07 $layer=POLY_cond $X=1.325 $Y=1.25
+ $X2=1.325 $Y2=0.655
r267 13 68 21.0057 $w=1.5e-07 $l=1.65e-07 $layer=POLY_cond $X=1.065 $Y=1.58
+ $X2=1.065 $Y2=1.415
r268 13 15 612.755 $w=1.5e-07 $l=1.195e-06 $layer=POLY_cond $X=1.065 $Y=1.58
+ $X2=1.065 $Y2=2.775
r269 9 67 21.0057 $w=1.5e-07 $l=1.65e-07 $layer=POLY_cond $X=0.835 $Y=1.25
+ $X2=0.835 $Y2=1.415
r270 9 11 412.777 $w=1.5e-07 $l=8.05e-07 $layer=POLY_cond $X=0.835 $Y=1.25
+ $X2=0.835 $Y2=0.445
r271 5 63 9.13417 $w=2.5e-07 $l=1.65e-07 $layer=POLY_cond $X=0.525 $Y=1.58
+ $X2=0.525 $Y2=1.415
r272 5 7 252.18 $w=2.5e-07 $l=1.015e-06 $layer=POLY_cond $X=0.525 $Y=1.58
+ $X2=0.525 $Y2=2.595
r273 1 62 21.0057 $w=1.5e-07 $l=1.65e-07 $layer=POLY_cond $X=0.475 $Y=1.25
+ $X2=0.475 $Y2=1.415
r274 1 3 412.777 $w=1.5e-07 $l=8.05e-07 $layer=POLY_cond $X=0.475 $Y=1.25
+ $X2=0.475 $Y2=0.445
.ends

.subckt PM_SKY130_FD_SC_LP__BUSDRIVERNOVLPSLEEP_20%TE_B 3 5 6 8 11 15 17 25
r59 23 25 54.1518 $w=3.8e-07 $l=3.7e-07 $layer=POLY_cond $X=2.245 $Y=1.395
+ $X2=2.615 $Y2=1.395
r60 23 24 145.28 $w=1.7e-07 $l=1.7e-07 $layer=licon1_POLY $count=1 $X=2.245
+ $Y=1.42 $X2=2.245 $Y2=1.42
r61 21 23 8.78138 $w=3.8e-07 $l=6e-08 $layer=POLY_cond $X=2.185 $Y=1.395
+ $X2=2.245 $Y2=1.395
r62 19 21 4.39069 $w=3.8e-07 $l=3e-08 $layer=POLY_cond $X=2.155 $Y=1.395
+ $X2=2.185 $Y2=1.395
r63 17 24 3.79093 $w=3.78e-07 $l=1.25e-07 $layer=LI1_cond $X=2.225 $Y=1.295
+ $X2=2.225 $Y2=1.42
r64 13 25 24.6126 $w=1.5e-07 $l=1.9e-07 $layer=POLY_cond $X=2.615 $Y=1.205
+ $X2=2.615 $Y2=1.395
r65 13 15 282.021 $w=1.5e-07 $l=5.5e-07 $layer=POLY_cond $X=2.615 $Y=1.205
+ $X2=2.615 $Y2=0.655
r66 9 21 24.6126 $w=1.5e-07 $l=1.9e-07 $layer=POLY_cond $X=2.185 $Y=1.205
+ $X2=2.185 $Y2=1.395
r67 9 11 282.021 $w=1.5e-07 $l=5.5e-07 $layer=POLY_cond $X=2.185 $Y=1.205
+ $X2=2.185 $Y2=0.655
r68 7 19 24.6126 $w=1.5e-07 $l=1.9e-07 $layer=POLY_cond $X=2.155 $Y=1.585
+ $X2=2.155 $Y2=1.395
r69 7 8 102.553 $w=1.5e-07 $l=2e-07 $layer=POLY_cond $X=2.155 $Y=1.585 $X2=2.155
+ $Y2=1.785
r70 5 8 26.9307 $w=1.5e-07 $l=1.06066e-07 $layer=POLY_cond $X=2.08 $Y=1.86
+ $X2=2.155 $Y2=1.785
r71 5 6 297.404 $w=1.5e-07 $l=5.8e-07 $layer=POLY_cond $X=2.08 $Y=1.86 $X2=1.5
+ $Y2=1.86
r72 1 6 26.9307 $w=1.5e-07 $l=1.06066e-07 $layer=POLY_cond $X=1.425 $Y=1.935
+ $X2=1.5 $Y2=1.86
r73 1 3 430.723 $w=1.5e-07 $l=8.4e-07 $layer=POLY_cond $X=1.425 $Y=1.935
+ $X2=1.425 $Y2=2.775
.ends

.subckt PM_SKY130_FD_SC_LP__BUSDRIVERNOVLPSLEEP_20%A_27_47# 1 2 9 13 15 16 22 26
+ 27 29
c88 27 0 4.91905e-20 $X=4.65 $Y=1.445
c89 22 0 2.93767e-19 $X=4.65 $Y=1.665
c90 15 0 1.60636e-20 $X=4.505 $Y=1.665
r91 26 27 145.28 $w=1.7e-07 $l=1.7e-07 $layer=licon1_POLY $count=1 $X=4.65
+ $Y=1.445 $X2=4.65 $Y2=1.445
r92 23 27 7.68295 $w=3.28e-07 $l=2.2e-07 $layer=LI1_cond $X=4.65 $Y=1.665
+ $X2=4.65 $Y2=1.445
r93 22 23 9.3 $w=1.7e-07 $l=1.7e-07 $layer=mcon $count=1 $X=4.65 $Y=1.665
+ $X2=4.65 $Y2=1.665
r94 19 33 31.6049 $w=3.28e-07 $l=9.05e-07 $layer=LI1_cond $X=0.26 $Y=1.665
+ $X2=0.26 $Y2=2.57
r95 19 29 43.4785 $w=3.28e-07 $l=1.245e-06 $layer=LI1_cond $X=0.26 $Y=1.665
+ $X2=0.26 $Y2=0.42
r96 18 19 9.3 $w=1.7e-07 $l=1.7e-07 $layer=mcon $count=1 $X=0.24 $Y=1.665
+ $X2=0.24 $Y2=1.665
r97 16 18 0.115467 $w=2.3e-07 $l=1.45e-07 $layer=MET1_cond $X=0.385 $Y=1.665
+ $X2=0.24 $Y2=1.665
r98 15 22 0.115467 $w=2.3e-07 $l=1.45e-07 $layer=MET1_cond $X=4.505 $Y=1.665
+ $X2=4.65 $Y2=1.665
r99 15 16 5.099 $w=1.4e-07 $l=4.12e-06 $layer=MET1_cond $X=4.505 $Y=1.665
+ $X2=0.385 $Y2=1.665
r100 11 26 46.1532 $w=2.87e-07 $l=3.51426e-07 $layer=POLY_cond $X=4.835 $Y=1.705
+ $X2=4.62 $Y2=1.445
r101 11 13 389.702 $w=1.5e-07 $l=7.6e-07 $layer=POLY_cond $X=4.835 $Y=1.705
+ $X2=4.835 $Y2=2.465
r102 7 26 46.1532 $w=2.87e-07 $l=3.51426e-07 $layer=POLY_cond $X=4.405 $Y=1.705
+ $X2=4.62 $Y2=1.445
r103 7 9 389.702 $w=1.5e-07 $l=7.6e-07 $layer=POLY_cond $X=4.405 $Y=1.705
+ $X2=4.405 $Y2=2.465
r104 2 33 300 $w=1.7e-07 $l=5.33854e-07 $layer=licon1_PDIFF $count=2 $X=0.135
+ $Y=2.095 $X2=0.26 $Y2=2.57
r105 1 29 182 $w=1.7e-07 $l=2.39479e-07 $layer=licon1_NDIFF $count=1 $X=0.135
+ $Y=0.235 $X2=0.26 $Y2=0.42
.ends

.subckt PM_SKY130_FD_SC_LP__BUSDRIVERNOVLPSLEEP_20%A_280_47# 1 2 3 12 14 15 17
+ 18 20 23 25 27 28 29 32 35 36 37 40 42 45 48 51 53 55 59 63 67 68
c179 68 0 6.74658e-20 $X=1.612 $Y=1.845
c180 40 0 1.02413e-19 $X=6.145 $Y=2.675
r181 72 73 31.6192 $w=6.25e-07 $l=4.1e-07 $layer=POLY_cond $X=3.565 $Y=1.317
+ $X2=3.975 $Y2=1.317
r182 71 72 8.8688 $w=6.25e-07 $l=1.15e-07 $layer=POLY_cond $X=3.45 $Y=1.317
+ $X2=3.565 $Y2=1.317
r183 64 71 29.6912 $w=6.25e-07 $l=3.85e-07 $layer=POLY_cond $X=3.065 $Y=1.317
+ $X2=3.45 $Y2=1.317
r184 64 69 6.9408 $w=6.25e-07 $l=9e-08 $layer=POLY_cond $X=3.065 $Y=1.317
+ $X2=2.975 $Y2=1.317
r185 63 64 145.28 $w=1.7e-07 $l=1.7e-07 $layer=licon1_POLY $count=1 $X=3.065
+ $Y=1.51 $X2=3.065 $Y2=1.51
r186 61 63 10.8721 $w=2.63e-07 $l=2.5e-07 $layer=LI1_cond $X=3.032 $Y=1.76
+ $X2=3.032 $Y2=1.51
r187 57 59 20.6969 $w=2.43e-07 $l=4.4e-07 $layer=LI1_cond $X=2.427 $Y=0.86
+ $X2=2.427 $Y2=0.42
r188 56 68 3.01551 $w=1.7e-07 $l=1.93e-07 $layer=LI1_cond $X=1.805 $Y=1.845
+ $X2=1.612 $Y2=1.845
r189 55 61 7.24806 $w=1.7e-07 $l=1.69245e-07 $layer=LI1_cond $X=2.9 $Y=1.845
+ $X2=3.032 $Y2=1.76
r190 55 56 71.4385 $w=1.68e-07 $l=1.095e-06 $layer=LI1_cond $X=2.9 $Y=1.845
+ $X2=1.805 $Y2=1.845
r191 54 67 2.11342 $w=1.7e-07 $l=1.08e-07 $layer=LI1_cond $X=1.635 $Y=0.945
+ $X2=1.527 $Y2=0.945
r192 53 57 7.11011 $w=1.7e-07 $l=1.58915e-07 $layer=LI1_cond $X=2.305 $Y=0.945
+ $X2=2.427 $Y2=0.86
r193 53 54 43.7112 $w=1.68e-07 $l=6.7e-07 $layer=LI1_cond $X=2.305 $Y=0.945
+ $X2=1.635 $Y2=0.945
r194 49 68 3.49088 $w=2.67e-07 $l=9.80051e-08 $layer=LI1_cond $X=1.64 $Y=1.93
+ $X2=1.612 $Y2=1.845
r195 49 51 23.7473 $w=3.28e-07 $l=6.8e-07 $layer=LI1_cond $X=1.64 $Y=1.93
+ $X2=1.64 $Y2=2.61
r196 48 68 3.49088 $w=2.67e-07 $l=1.25499e-07 $layer=LI1_cond $X=1.522 $Y=1.76
+ $X2=1.612 $Y2=1.845
r197 47 67 4.3182 $w=2.1e-07 $l=8.74643e-08 $layer=LI1_cond $X=1.522 $Y=1.03
+ $X2=1.527 $Y2=0.945
r198 47 48 39.4945 $w=2.03e-07 $l=7.3e-07 $layer=LI1_cond $X=1.522 $Y=1.03
+ $X2=1.522 $Y2=1.76
r199 43 67 4.3182 $w=2.1e-07 $l=8.5e-08 $layer=LI1_cond $X=1.527 $Y=0.86
+ $X2=1.527 $Y2=0.945
r200 43 45 23.5849 $w=2.13e-07 $l=4.4e-07 $layer=LI1_cond $X=1.527 $Y=0.86
+ $X2=1.527 $Y2=0.42
r201 38 40 574.298 $w=1.5e-07 $l=1.12e-06 $layer=POLY_cond $X=6.145 $Y=1.555
+ $X2=6.145 $Y2=2.675
r202 36 38 26.9307 $w=1.5e-07 $l=1.06066e-07 $layer=POLY_cond $X=6.07 $Y=1.48
+ $X2=6.145 $Y2=1.555
r203 36 37 412.777 $w=1.5e-07 $l=8.05e-07 $layer=POLY_cond $X=6.07 $Y=1.48
+ $X2=5.265 $Y2=1.48
r204 35 37 26.9307 $w=1.5e-07 $l=1.06066e-07 $layer=POLY_cond $X=5.19 $Y=1.405
+ $X2=5.265 $Y2=1.48
r205 34 42 20.4101 $w=1.5e-07 $l=7.5e-08 $layer=POLY_cond $X=5.19 $Y=1.07
+ $X2=5.19 $Y2=0.995
r206 34 35 171.777 $w=1.5e-07 $l=3.35e-07 $layer=POLY_cond $X=5.19 $Y=1.07
+ $X2=5.19 $Y2=1.405
r207 30 42 20.4101 $w=1.5e-07 $l=7.5e-08 $layer=POLY_cond $X=5.19 $Y=0.92
+ $X2=5.19 $Y2=0.995
r208 30 32 243.564 $w=1.5e-07 $l=4.75e-07 $layer=POLY_cond $X=5.19 $Y=0.92
+ $X2=5.19 $Y2=0.445
r209 29 73 38.3143 $w=6.25e-07 $l=3.57539e-07 $layer=POLY_cond $X=4.05 $Y=0.995
+ $X2=3.975 $Y2=1.317
r210 28 42 5.30422 $w=1.5e-07 $l=7.5e-08 $layer=POLY_cond $X=5.115 $Y=0.995
+ $X2=5.19 $Y2=0.995
r211 28 29 546.096 $w=1.5e-07 $l=1.065e-06 $layer=POLY_cond $X=5.115 $Y=0.995
+ $X2=4.05 $Y2=0.995
r212 25 73 37.1359 $w=1.5e-07 $l=3.98e-07 $layer=POLY_cond $X=3.975 $Y=1.715
+ $X2=3.975 $Y2=1.317
r213 25 27 241 $w=1.5e-07 $l=7.5e-07 $layer=POLY_cond $X=3.975 $Y=1.715
+ $X2=3.975 $Y2=2.465
r214 21 72 37.1359 $w=1.5e-07 $l=3.97e-07 $layer=POLY_cond $X=3.565 $Y=0.92
+ $X2=3.565 $Y2=1.317
r215 21 23 243.564 $w=1.5e-07 $l=4.75e-07 $layer=POLY_cond $X=3.565 $Y=0.92
+ $X2=3.565 $Y2=0.445
r216 18 71 37.1359 $w=1.5e-07 $l=3.98e-07 $layer=POLY_cond $X=3.45 $Y=1.715
+ $X2=3.45 $Y2=1.317
r217 18 20 241 $w=1.5e-07 $l=7.5e-07 $layer=POLY_cond $X=3.45 $Y=1.715 $X2=3.45
+ $Y2=2.465
r218 16 69 37.1359 $w=1.5e-07 $l=3.98e-07 $layer=POLY_cond $X=2.975 $Y=1.715
+ $X2=2.975 $Y2=1.317
r219 16 17 220.489 $w=1.5e-07 $l=4.3e-07 $layer=POLY_cond $X=2.975 $Y=1.715
+ $X2=2.975 $Y2=2.145
r220 14 17 26.9307 $w=1.5e-07 $l=1.06066e-07 $layer=POLY_cond $X=2.9 $Y=2.22
+ $X2=2.975 $Y2=2.145
r221 14 15 230.745 $w=1.5e-07 $l=4.5e-07 $layer=POLY_cond $X=2.9 $Y=2.22
+ $X2=2.45 $Y2=2.22
r222 10 15 26.9307 $w=1.5e-07 $l=1.06066e-07 $layer=POLY_cond $X=2.375 $Y=2.295
+ $X2=2.45 $Y2=2.22
r223 10 12 246.128 $w=1.5e-07 $l=4.8e-07 $layer=POLY_cond $X=2.375 $Y=2.295
+ $X2=2.375 $Y2=2.775
r224 3 51 300 $w=1.7e-07 $l=2.13834e-07 $layer=licon1_PDIFF $count=2 $X=1.5
+ $Y=2.455 $X2=1.64 $Y2=2.61
r225 2 59 91 $w=1.7e-07 $l=2.45204e-07 $layer=licon1_NDIFF $count=2 $X=2.26
+ $Y=0.235 $X2=2.4 $Y2=0.42
r226 1 67 182 $w=1.7e-07 $l=7.81873e-07 $layer=licon1_NDIFF $count=1 $X=1.4
+ $Y=0.235 $X2=1.54 $Y2=0.95
r227 1 45 182 $w=1.7e-07 $l=2.45204e-07 $layer=licon1_NDIFF $count=1 $X=1.4
+ $Y=0.235 $X2=1.54 $Y2=0.42
.ends

.subckt PM_SKY130_FD_SC_LP__BUSDRIVERNOVLPSLEEP_20%A_705_367# 1 2 3 12 14 15 17
+ 18 20 22 24 25 26 27 29 30 32 34 35 37 39 40 42 44 45 47 49 50 52 54 55 57 59
+ 60 62 64 65 67 69 70 72 74 75 77 79 80 82 83 85 86 88 89 91 92 94 95 97 98 100
+ 101 103 104 105 106 107 108 109 110 111 112 113 116 120 121 123 125 128 130
+ 131 134 137 138 140 143 144 148 159 164 172 177 182 187 188 205
c554 144 0 3.14657e-19 $X=6.625 $Y=1.665
c555 143 0 1.29574e-19 $X=14.5 $Y=1.665
c556 104 0 6.17609e-20 $X=14.84 $Y=1.65
c557 26 0 3.58277e-20 $X=14.485 $Y=1.65
c558 17 0 1.51872e-19 $X=6.505 $Y=1.575
r559 187 189 40.8145 $w=3.72e-07 $l=3.15e-07 $layer=POLY_cond $X=22.265 $Y=1.535
+ $X2=22.58 $Y2=1.535
r560 187 188 72.64 $w=1.7e-07 $l=3.4e-07 $layer=licon1_POLY $count=2 $X=22.265
+ $Y=1.51 $X2=22.265 $Y2=1.51
r561 185 187 14.9005 $w=3.72e-07 $l=1.15e-07 $layer=POLY_cond $X=22.15 $Y=1.535
+ $X2=22.265 $Y2=1.535
r562 184 185 55.7151 $w=3.72e-07 $l=4.3e-07 $layer=POLY_cond $X=21.72 $Y=1.535
+ $X2=22.15 $Y2=1.535
r563 183 184 55.7151 $w=3.72e-07 $l=4.3e-07 $layer=POLY_cond $X=21.29 $Y=1.535
+ $X2=21.72 $Y2=1.535
r564 181 183 29.1532 $w=3.72e-07 $l=2.25e-07 $layer=POLY_cond $X=21.065 $Y=1.535
+ $X2=21.29 $Y2=1.535
r565 181 182 145.28 $w=1.7e-07 $l=1.7e-07 $layer=licon1_POLY $count=1 $X=21.065
+ $Y=1.51 $X2=21.065 $Y2=1.51
r566 179 181 26.5618 $w=3.72e-07 $l=2.05e-07 $layer=POLY_cond $X=20.86 $Y=1.535
+ $X2=21.065 $Y2=1.535
r567 178 179 55.7151 $w=3.72e-07 $l=4.3e-07 $layer=POLY_cond $X=20.43 $Y=1.535
+ $X2=20.86 $Y2=1.535
r568 176 178 29.1532 $w=3.72e-07 $l=2.25e-07 $layer=POLY_cond $X=20.205 $Y=1.535
+ $X2=20.43 $Y2=1.535
r569 176 177 145.28 $w=1.7e-07 $l=1.7e-07 $layer=licon1_POLY $count=1 $X=20.205
+ $Y=1.51 $X2=20.205 $Y2=1.51
r570 174 176 26.5618 $w=3.72e-07 $l=2.05e-07 $layer=POLY_cond $X=20 $Y=1.535
+ $X2=20.205 $Y2=1.535
r571 173 174 55.7151 $w=3.72e-07 $l=4.3e-07 $layer=POLY_cond $X=19.57 $Y=1.535
+ $X2=20 $Y2=1.535
r572 171 173 29.1532 $w=3.72e-07 $l=2.25e-07 $layer=POLY_cond $X=19.345 $Y=1.535
+ $X2=19.57 $Y2=1.535
r573 171 172 145.28 $w=1.7e-07 $l=1.7e-07 $layer=licon1_POLY $count=1 $X=19.345
+ $Y=1.51 $X2=19.345 $Y2=1.51
r574 164 205 7.84979 $w=3.53e-07 $l=1.45e-07 $layer=LI1_cond $X=6.48 $Y=1.727
+ $X2=6.335 $Y2=1.727
r575 164 167 145.28 $w=1.7e-07 $l=1.7e-07 $layer=licon1_POLY $count=1 $X=6.595
+ $Y=1.74 $X2=6.595 $Y2=1.74
r576 163 164 9.3 $w=1.7e-07 $l=1.7e-07 $layer=mcon $count=1 $X=6.48 $Y=1.665
+ $X2=6.48 $Y2=1.665
r577 159 188 4.65 $w=1.7e-07 $l=3.4e-07 $layer=mcon $count=2 $X=22.285 $Y=1.665
+ $X2=22.285 $Y2=1.665
r578 156 159 0.782757 $w=2.3e-07 $l=1.22e-06 $layer=MET1_cond $X=21.065 $Y=1.665
+ $X2=22.285 $Y2=1.665
r579 156 182 9.3 $w=1.7e-07 $l=1.7e-07 $layer=mcon $count=1 $X=21.065 $Y=1.665
+ $X2=21.065 $Y2=1.665
r580 153 156 0.55178 $w=2.3e-07 $l=8.6e-07 $layer=MET1_cond $X=20.205 $Y=1.665
+ $X2=21.065 $Y2=1.665
r581 153 177 9.3 $w=1.7e-07 $l=1.7e-07 $layer=mcon $count=1 $X=20.205 $Y=1.665
+ $X2=20.205 $Y2=1.665
r582 150 153 0.55178 $w=2.3e-07 $l=8.6e-07 $layer=MET1_cond $X=19.345 $Y=1.665
+ $X2=20.205 $Y2=1.665
r583 150 172 9.3 $w=1.7e-07 $l=1.7e-07 $layer=mcon $count=1 $X=19.345 $Y=1.665
+ $X2=19.345 $Y2=1.665
r584 147 150 2.99308 $w=2.3e-07 $l=4.665e-06 $layer=MET1_cond $X=14.68 $Y=1.665
+ $X2=19.345 $Y2=1.665
r585 147 148 9.3 $w=1.7e-07 $l=1.7e-07 $layer=mcon $count=1 $X=14.68 $Y=1.665
+ $X2=14.68 $Y2=1.665
r586 145 147 0.0384963 $w=2.3e-07 $l=6e-08 $layer=MET1_cond $X=14.62 $Y=1.665
+ $X2=14.68 $Y2=1.665
r587 144 163 0.115467 $w=2.3e-07 $l=1.45e-07 $layer=MET1_cond $X=6.625 $Y=1.665
+ $X2=6.48 $Y2=1.665
r588 143 145 0.0657895 $w=2.28e-07 $l=1.2e-07 $layer=MET1_cond $X=14.5 $Y=1.665
+ $X2=14.62 $Y2=1.665
r589 143 144 9.74627 $w=1.4e-07 $l=7.875e-06 $layer=MET1_cond $X=14.5 $Y=1.665
+ $X2=6.625 $Y2=1.665
r590 140 148 15.5329 $w=2.28e-07 $l=3.1e-07 $layer=LI1_cond $X=14.37 $Y=1.665
+ $X2=14.68 $Y2=1.665
r591 140 141 13.3743 $w=1.68e-07 $l=2.05e-07 $layer=LI1_cond $X=14.285 $Y=1.665
+ $X2=14.285 $Y2=1.87
r592 137 140 7.50267 $w=1.68e-07 $l=1.15e-07 $layer=LI1_cond $X=14.285 $Y=1.55
+ $X2=14.285 $Y2=1.665
r593 137 138 29.6845 $w=1.68e-07 $l=4.55e-07 $layer=LI1_cond $X=14.285 $Y=1.55
+ $X2=14.285 $Y2=1.095
r594 132 138 7.79447 $w=2.93e-07 $l=1.47e-07 $layer=LI1_cond $X=14.222 $Y=0.948
+ $X2=14.222 $Y2=1.095
r595 132 134 5.19576 $w=2.93e-07 $l=1.33e-07 $layer=LI1_cond $X=14.222 $Y=0.948
+ $X2=14.222 $Y2=0.815
r596 130 141 0.716491 $w=1.7e-07 $l=8.5e-08 $layer=LI1_cond $X=14.2 $Y=1.87
+ $X2=14.285 $Y2=1.87
r597 130 131 51.5401 $w=1.68e-07 $l=7.9e-07 $layer=LI1_cond $X=14.2 $Y=1.87
+ $X2=13.41 $Y2=1.87
r598 126 131 7.21222 $w=1.7e-07 $l=1.67183e-07 $layer=LI1_cond $X=13.28 $Y=1.955
+ $X2=13.41 $Y2=1.87
r599 126 128 1.10812 $w=2.58e-07 $l=2.5e-08 $layer=LI1_cond $X=13.28 $Y=1.955
+ $X2=13.28 $Y2=1.98
r600 125 205 20.877 $w=1.68e-07 $l=3.2e-07 $layer=LI1_cond $X=6.015 $Y=1.635
+ $X2=6.335 $Y2=1.635
r601 123 125 6.81649 $w=1.7e-07 $l=1.20208e-07 $layer=LI1_cond $X=5.93 $Y=1.55
+ $X2=6.015 $Y2=1.635
r602 122 123 25.7701 $w=1.68e-07 $l=3.95e-07 $layer=LI1_cond $X=5.93 $Y=1.155
+ $X2=5.93 $Y2=1.55
r603 120 122 6.81649 $w=1.7e-07 $l=1.20208e-07 $layer=LI1_cond $X=5.845 $Y=1.07
+ $X2=5.93 $Y2=1.155
r604 120 121 127.219 $w=1.68e-07 $l=1.95e-06 $layer=LI1_cond $X=5.845 $Y=1.07
+ $X2=3.895 $Y2=1.07
r605 116 118 49.2407 $w=2.18e-07 $l=9.4e-07 $layer=LI1_cond $X=3.785 $Y=1.96
+ $X2=3.785 $Y2=2.9
r606 114 121 6.96323 $w=1.7e-07 $l=1.46458e-07 $layer=LI1_cond $X=3.785 $Y=1.155
+ $X2=3.895 $Y2=1.07
r607 114 116 42.1689 $w=2.18e-07 $l=8.05e-07 $layer=LI1_cond $X=3.785 $Y=1.155
+ $X2=3.785 $Y2=1.96
r608 101 189 24.0971 $w=1.5e-07 $l=1.9e-07 $layer=POLY_cond $X=22.58 $Y=1.725
+ $X2=22.58 $Y2=1.535
r609 101 103 237.787 $w=1.5e-07 $l=7.4e-07 $layer=POLY_cond $X=22.58 $Y=1.725
+ $X2=22.58 $Y2=2.465
r610 98 185 24.0971 $w=1.5e-07 $l=1.9e-07 $layer=POLY_cond $X=22.15 $Y=1.725
+ $X2=22.15 $Y2=1.535
r611 98 100 237.787 $w=1.5e-07 $l=7.4e-07 $layer=POLY_cond $X=22.15 $Y=1.725
+ $X2=22.15 $Y2=2.465
r612 95 184 24.0971 $w=1.5e-07 $l=1.9e-07 $layer=POLY_cond $X=21.72 $Y=1.725
+ $X2=21.72 $Y2=1.535
r613 95 97 237.787 $w=1.5e-07 $l=7.4e-07 $layer=POLY_cond $X=21.72 $Y=1.725
+ $X2=21.72 $Y2=2.465
r614 92 183 24.0971 $w=1.5e-07 $l=1.9e-07 $layer=POLY_cond $X=21.29 $Y=1.725
+ $X2=21.29 $Y2=1.535
r615 92 94 237.787 $w=1.5e-07 $l=7.4e-07 $layer=POLY_cond $X=21.29 $Y=1.725
+ $X2=21.29 $Y2=2.465
r616 89 179 24.0971 $w=1.5e-07 $l=1.9e-07 $layer=POLY_cond $X=20.86 $Y=1.725
+ $X2=20.86 $Y2=1.535
r617 89 91 237.787 $w=1.5e-07 $l=7.4e-07 $layer=POLY_cond $X=20.86 $Y=1.725
+ $X2=20.86 $Y2=2.465
r618 86 178 24.0971 $w=1.5e-07 $l=1.9e-07 $layer=POLY_cond $X=20.43 $Y=1.725
+ $X2=20.43 $Y2=1.535
r619 86 88 237.787 $w=1.5e-07 $l=7.4e-07 $layer=POLY_cond $X=20.43 $Y=1.725
+ $X2=20.43 $Y2=2.465
r620 83 174 24.0971 $w=1.5e-07 $l=1.9e-07 $layer=POLY_cond $X=20 $Y=1.725 $X2=20
+ $Y2=1.535
r621 83 85 237.787 $w=1.5e-07 $l=7.4e-07 $layer=POLY_cond $X=20 $Y=1.725 $X2=20
+ $Y2=2.465
r622 80 173 24.0971 $w=1.5e-07 $l=1.9e-07 $layer=POLY_cond $X=19.57 $Y=1.725
+ $X2=19.57 $Y2=1.535
r623 80 82 237.787 $w=1.5e-07 $l=7.4e-07 $layer=POLY_cond $X=19.57 $Y=1.725
+ $X2=19.57 $Y2=2.465
r624 77 171 26.5618 $w=3.72e-07 $l=2.84561e-07 $layer=POLY_cond $X=19.14
+ $Y=1.725 $X2=19.345 $Y2=1.535
r625 77 79 237.787 $w=1.5e-07 $l=7.4e-07 $layer=POLY_cond $X=19.14 $Y=1.725
+ $X2=19.14 $Y2=2.465
r626 76 113 20.4101 $w=1.5e-07 $l=7.5e-08 $layer=POLY_cond $X=18.785 $Y=1.65
+ $X2=18.71 $Y2=1.65
r627 75 77 27.4257 $w=3.72e-07 $l=1.06066e-07 $layer=POLY_cond $X=19.065 $Y=1.65
+ $X2=19.14 $Y2=1.725
r628 75 76 143.574 $w=1.5e-07 $l=2.8e-07 $layer=POLY_cond $X=19.065 $Y=1.65
+ $X2=18.785 $Y2=1.65
r629 72 113 5.30422 $w=1.5e-07 $l=7.5e-08 $layer=POLY_cond $X=18.71 $Y=1.725
+ $X2=18.71 $Y2=1.65
r630 72 74 237.787 $w=1.5e-07 $l=7.4e-07 $layer=POLY_cond $X=18.71 $Y=1.725
+ $X2=18.71 $Y2=2.465
r631 71 112 20.4101 $w=1.5e-07 $l=7.5e-08 $layer=POLY_cond $X=18.355 $Y=1.65
+ $X2=18.28 $Y2=1.65
r632 70 113 20.4101 $w=1.5e-07 $l=7.5e-08 $layer=POLY_cond $X=18.635 $Y=1.65
+ $X2=18.71 $Y2=1.65
r633 70 71 143.574 $w=1.5e-07 $l=2.8e-07 $layer=POLY_cond $X=18.635 $Y=1.65
+ $X2=18.355 $Y2=1.65
r634 67 112 5.30422 $w=1.5e-07 $l=7.5e-08 $layer=POLY_cond $X=18.28 $Y=1.725
+ $X2=18.28 $Y2=1.65
r635 67 69 237.787 $w=1.5e-07 $l=7.4e-07 $layer=POLY_cond $X=18.28 $Y=1.725
+ $X2=18.28 $Y2=2.465
r636 66 111 20.4101 $w=1.5e-07 $l=7.5e-08 $layer=POLY_cond $X=17.925 $Y=1.65
+ $X2=17.85 $Y2=1.65
r637 65 112 20.4101 $w=1.5e-07 $l=7.5e-08 $layer=POLY_cond $X=18.205 $Y=1.65
+ $X2=18.28 $Y2=1.65
r638 65 66 143.574 $w=1.5e-07 $l=2.8e-07 $layer=POLY_cond $X=18.205 $Y=1.65
+ $X2=17.925 $Y2=1.65
r639 62 111 5.30422 $w=1.5e-07 $l=7.5e-08 $layer=POLY_cond $X=17.85 $Y=1.725
+ $X2=17.85 $Y2=1.65
r640 62 64 237.787 $w=1.5e-07 $l=7.4e-07 $layer=POLY_cond $X=17.85 $Y=1.725
+ $X2=17.85 $Y2=2.465
r641 61 110 20.4101 $w=1.5e-07 $l=7.5e-08 $layer=POLY_cond $X=17.495 $Y=1.65
+ $X2=17.42 $Y2=1.65
r642 60 111 20.4101 $w=1.5e-07 $l=7.5e-08 $layer=POLY_cond $X=17.775 $Y=1.65
+ $X2=17.85 $Y2=1.65
r643 60 61 143.574 $w=1.5e-07 $l=2.8e-07 $layer=POLY_cond $X=17.775 $Y=1.65
+ $X2=17.495 $Y2=1.65
r644 57 110 5.30422 $w=1.5e-07 $l=7.5e-08 $layer=POLY_cond $X=17.42 $Y=1.725
+ $X2=17.42 $Y2=1.65
r645 57 59 237.787 $w=1.5e-07 $l=7.4e-07 $layer=POLY_cond $X=17.42 $Y=1.725
+ $X2=17.42 $Y2=2.465
r646 56 109 20.4101 $w=1.5e-07 $l=7.5e-08 $layer=POLY_cond $X=17.065 $Y=1.65
+ $X2=16.99 $Y2=1.65
r647 55 110 20.4101 $w=1.5e-07 $l=7.5e-08 $layer=POLY_cond $X=17.345 $Y=1.65
+ $X2=17.42 $Y2=1.65
r648 55 56 143.574 $w=1.5e-07 $l=2.8e-07 $layer=POLY_cond $X=17.345 $Y=1.65
+ $X2=17.065 $Y2=1.65
r649 52 109 5.30422 $w=1.5e-07 $l=7.5e-08 $layer=POLY_cond $X=16.99 $Y=1.725
+ $X2=16.99 $Y2=1.65
r650 52 54 237.787 $w=1.5e-07 $l=7.4e-07 $layer=POLY_cond $X=16.99 $Y=1.725
+ $X2=16.99 $Y2=2.465
r651 51 108 20.4101 $w=1.5e-07 $l=7.5e-08 $layer=POLY_cond $X=16.635 $Y=1.65
+ $X2=16.56 $Y2=1.65
r652 50 109 20.4101 $w=1.5e-07 $l=7.5e-08 $layer=POLY_cond $X=16.915 $Y=1.65
+ $X2=16.99 $Y2=1.65
r653 50 51 143.574 $w=1.5e-07 $l=2.8e-07 $layer=POLY_cond $X=16.915 $Y=1.65
+ $X2=16.635 $Y2=1.65
r654 47 108 5.30422 $w=1.5e-07 $l=7.5e-08 $layer=POLY_cond $X=16.56 $Y=1.725
+ $X2=16.56 $Y2=1.65
r655 47 49 237.787 $w=1.5e-07 $l=7.4e-07 $layer=POLY_cond $X=16.56 $Y=1.725
+ $X2=16.56 $Y2=2.465
r656 46 107 20.4101 $w=1.5e-07 $l=7.5e-08 $layer=POLY_cond $X=16.205 $Y=1.65
+ $X2=16.13 $Y2=1.65
r657 45 108 20.4101 $w=1.5e-07 $l=7.5e-08 $layer=POLY_cond $X=16.485 $Y=1.65
+ $X2=16.56 $Y2=1.65
r658 45 46 143.574 $w=1.5e-07 $l=2.8e-07 $layer=POLY_cond $X=16.485 $Y=1.65
+ $X2=16.205 $Y2=1.65
r659 42 107 5.30422 $w=1.5e-07 $l=7.5e-08 $layer=POLY_cond $X=16.13 $Y=1.725
+ $X2=16.13 $Y2=1.65
r660 42 44 237.787 $w=1.5e-07 $l=7.4e-07 $layer=POLY_cond $X=16.13 $Y=1.725
+ $X2=16.13 $Y2=2.465
r661 41 106 20.4101 $w=1.5e-07 $l=7.5e-08 $layer=POLY_cond $X=15.775 $Y=1.65
+ $X2=15.7 $Y2=1.65
r662 40 107 20.4101 $w=1.5e-07 $l=7.5e-08 $layer=POLY_cond $X=16.055 $Y=1.65
+ $X2=16.13 $Y2=1.65
r663 40 41 143.574 $w=1.5e-07 $l=2.8e-07 $layer=POLY_cond $X=16.055 $Y=1.65
+ $X2=15.775 $Y2=1.65
r664 37 106 5.30422 $w=1.5e-07 $l=7.5e-08 $layer=POLY_cond $X=15.7 $Y=1.725
+ $X2=15.7 $Y2=1.65
r665 37 39 237.787 $w=1.5e-07 $l=7.4e-07 $layer=POLY_cond $X=15.7 $Y=1.725
+ $X2=15.7 $Y2=2.465
r666 36 105 20.4101 $w=1.5e-07 $l=7.5e-08 $layer=POLY_cond $X=15.345 $Y=1.65
+ $X2=15.27 $Y2=1.65
r667 35 106 20.4101 $w=1.5e-07 $l=7.5e-08 $layer=POLY_cond $X=15.625 $Y=1.65
+ $X2=15.7 $Y2=1.65
r668 35 36 143.574 $w=1.5e-07 $l=2.8e-07 $layer=POLY_cond $X=15.625 $Y=1.65
+ $X2=15.345 $Y2=1.65
r669 32 105 5.30422 $w=1.5e-07 $l=7.5e-08 $layer=POLY_cond $X=15.27 $Y=1.725
+ $X2=15.27 $Y2=1.65
r670 32 34 237.787 $w=1.5e-07 $l=7.4e-07 $layer=POLY_cond $X=15.27 $Y=1.725
+ $X2=15.27 $Y2=2.465
r671 31 104 20.4101 $w=1.5e-07 $l=7.5e-08 $layer=POLY_cond $X=14.915 $Y=1.65
+ $X2=14.84 $Y2=1.65
r672 30 105 20.4101 $w=1.5e-07 $l=7.5e-08 $layer=POLY_cond $X=15.195 $Y=1.65
+ $X2=15.27 $Y2=1.65
r673 30 31 143.574 $w=1.5e-07 $l=2.8e-07 $layer=POLY_cond $X=15.195 $Y=1.65
+ $X2=14.915 $Y2=1.65
r674 27 104 5.30422 $w=1.5e-07 $l=7.5e-08 $layer=POLY_cond $X=14.84 $Y=1.725
+ $X2=14.84 $Y2=1.65
r675 27 29 237.787 $w=1.5e-07 $l=7.4e-07 $layer=POLY_cond $X=14.84 $Y=1.725
+ $X2=14.84 $Y2=2.465
r676 25 104 20.4101 $w=1.5e-07 $l=7.5e-08 $layer=POLY_cond $X=14.765 $Y=1.65
+ $X2=14.84 $Y2=1.65
r677 25 26 143.574 $w=1.5e-07 $l=2.8e-07 $layer=POLY_cond $X=14.765 $Y=1.65
+ $X2=14.485 $Y2=1.65
r678 22 26 26.9307 $w=1.5e-07 $l=1.06066e-07 $layer=POLY_cond $X=14.41 $Y=1.725
+ $X2=14.485 $Y2=1.65
r679 22 24 237.787 $w=1.5e-07 $l=7.4e-07 $layer=POLY_cond $X=14.41 $Y=1.725
+ $X2=14.41 $Y2=2.465
r680 18 167 39.3224 $w=3.28e-07 $l=1.79722e-07 $layer=POLY_cond $X=6.575 $Y=1.91
+ $X2=6.595 $Y2=1.74
r681 18 20 392.266 $w=1.5e-07 $l=7.65e-07 $layer=POLY_cond $X=6.575 $Y=1.91
+ $X2=6.575 $Y2=2.675
r682 17 167 38.5876 $w=3.28e-07 $l=2.05122e-07 $layer=POLY_cond $X=6.505
+ $Y=1.575 $X2=6.595 $Y2=1.74
r683 16 17 194.851 $w=1.5e-07 $l=3.8e-07 $layer=POLY_cond $X=6.505 $Y=1.195
+ $X2=6.505 $Y2=1.575
r684 14 16 26.9307 $w=1.5e-07 $l=1.06066e-07 $layer=POLY_cond $X=6.43 $Y=1.12
+ $X2=6.505 $Y2=1.195
r685 14 15 412.777 $w=1.5e-07 $l=8.05e-07 $layer=POLY_cond $X=6.43 $Y=1.12
+ $X2=5.625 $Y2=1.12
r686 10 15 26.9307 $w=1.5e-07 $l=1.06066e-07 $layer=POLY_cond $X=5.55 $Y=1.045
+ $X2=5.625 $Y2=1.12
r687 10 12 307.66 $w=1.5e-07 $l=6e-07 $layer=POLY_cond $X=5.55 $Y=1.045 $X2=5.55
+ $Y2=0.445
r688 3 128 300 $w=1.7e-07 $l=2.03286e-07 $layer=licon1_PDIFF $count=2 $X=13.105
+ $Y=1.835 $X2=13.245 $Y2=1.98
r689 2 118 400 $w=1.7e-07 $l=1.17665e-06 $layer=licon1_PDIFF $count=1 $X=3.525
+ $Y=1.835 $X2=3.76 $Y2=2.9
r690 2 116 400 $w=1.7e-07 $l=2.90861e-07 $layer=licon1_PDIFF $count=1 $X=3.525
+ $Y=1.835 $X2=3.76 $Y2=1.96
r691 1 134 182 $w=1.7e-07 $l=6.4622e-07 $layer=licon1_NDIFF $count=1 $X=14.03
+ $Y=0.235 $X2=14.17 $Y2=0.815
.ends

.subckt PM_SKY130_FD_SC_LP__BUSDRIVERNOVLPSLEEP_20%A_407_491# 1 2 8 9 10 11 13
+ 14 16 18 19 21 25 27 28 31 33 34 35 36 37 41 42 46 48 49 51 52 53 55 56 57 64
+ 66
c214 64 0 3.00155e-20 $X=10.15 $Y=1.16
c215 21 0 1.20891e-19 $X=10.09 $Y=2.285
c216 19 0 1.91794e-19 $X=10.09 $Y=1.33
c217 14 0 7.24991e-20 $X=7.96 $Y=1.26
r218 64 66 8.46218 $w=3.28e-07 $l=1.65e-07 $layer=LI1_cond $X=10.15 $Y=1.16
+ $X2=10.15 $Y2=0.995
r219 64 65 145.28 $w=1.7e-07 $l=1.7e-07 $layer=licon1_POLY $count=1 $X=10.15
+ $Y=1.16 $X2=10.15 $Y2=1.16
r220 61 62 13.5556 $w=2.61e-07 $l=2.9e-07 $layer=LI1_cond $X=3.345 $Y=0.44
+ $X2=3.345 $Y2=0.73
r221 58 66 11.0909 $w=1.68e-07 $l=1.7e-07 $layer=LI1_cond $X=10.07 $Y=0.825
+ $X2=10.07 $Y2=0.995
r222 56 58 6.81649 $w=1.7e-07 $l=1.20208e-07 $layer=LI1_cond $X=9.985 $Y=0.74
+ $X2=10.07 $Y2=0.825
r223 56 57 113.519 $w=1.68e-07 $l=1.74e-06 $layer=LI1_cond $X=9.985 $Y=0.74
+ $X2=8.245 $Y2=0.74
r224 55 57 6.81649 $w=1.7e-07 $l=1.20208e-07 $layer=LI1_cond $X=8.16 $Y=0.655
+ $X2=8.245 $Y2=0.74
r225 54 55 14.3529 $w=1.68e-07 $l=2.2e-07 $layer=LI1_cond $X=8.16 $Y=0.435
+ $X2=8.16 $Y2=0.655
r226 52 54 6.81649 $w=1.7e-07 $l=1.20208e-07 $layer=LI1_cond $X=8.075 $Y=0.35
+ $X2=8.16 $Y2=0.435
r227 52 53 33.2727 $w=1.68e-07 $l=5.1e-07 $layer=LI1_cond $X=8.075 $Y=0.35
+ $X2=7.565 $Y2=0.35
r228 50 53 6.81649 $w=1.7e-07 $l=1.20208e-07 $layer=LI1_cond $X=7.48 $Y=0.435
+ $X2=7.565 $Y2=0.35
r229 50 51 27.0749 $w=1.68e-07 $l=4.15e-07 $layer=LI1_cond $X=7.48 $Y=0.435
+ $X2=7.48 $Y2=0.85
r230 48 51 6.81649 $w=1.7e-07 $l=1.20208e-07 $layer=LI1_cond $X=7.395 $Y=0.935
+ $X2=7.48 $Y2=0.85
r231 48 49 45.6684 $w=1.68e-07 $l=7e-07 $layer=LI1_cond $X=7.395 $Y=0.935
+ $X2=6.695 $Y2=0.935
r232 46 47 145.28 $w=1.7e-07 $l=1.7e-07 $layer=licon1_POLY $count=1 $X=6.61
+ $Y=0.67 $X2=6.61 $Y2=0.67
r233 44 49 6.81649 $w=1.7e-07 $l=1.20208e-07 $layer=LI1_cond $X=6.61 $Y=0.85
+ $X2=6.695 $Y2=0.935
r234 44 46 11.7433 $w=1.68e-07 $l=1.8e-07 $layer=LI1_cond $X=6.61 $Y=0.85
+ $X2=6.61 $Y2=0.67
r235 43 46 15.3316 $w=1.68e-07 $l=2.35e-07 $layer=LI1_cond $X=6.61 $Y=0.435
+ $X2=6.61 $Y2=0.67
r236 41 43 6.81649 $w=1.7e-07 $l=1.20208e-07 $layer=LI1_cond $X=6.525 $Y=0.35
+ $X2=6.61 $Y2=0.435
r237 41 42 69.8075 $w=1.68e-07 $l=1.07e-06 $layer=LI1_cond $X=6.525 $Y=0.35
+ $X2=5.455 $Y2=0.35
r238 39 42 6.81649 $w=1.7e-07 $l=1.20208e-07 $layer=LI1_cond $X=5.37 $Y=0.435
+ $X2=5.455 $Y2=0.35
r239 39 40 13.7005 $w=1.68e-07 $l=2.1e-07 $layer=LI1_cond $X=5.37 $Y=0.435
+ $X2=5.37 $Y2=0.645
r240 38 62 3.24614 $w=1.7e-07 $l=1.6e-07 $layer=LI1_cond $X=3.505 $Y=0.73
+ $X2=3.345 $Y2=0.73
r241 37 40 6.81649 $w=1.7e-07 $l=1.20208e-07 $layer=LI1_cond $X=5.285 $Y=0.73
+ $X2=5.37 $Y2=0.645
r242 37 38 116.128 $w=1.68e-07 $l=1.78e-06 $layer=LI1_cond $X=5.285 $Y=0.73
+ $X2=3.505 $Y2=0.73
r243 35 62 5.45457 $w=2.61e-07 $l=1.16619e-07 $layer=LI1_cond $X=3.42 $Y=0.815
+ $X2=3.345 $Y2=0.73
r244 35 36 83.8342 $w=1.68e-07 $l=1.285e-06 $layer=LI1_cond $X=3.42 $Y=0.815
+ $X2=3.42 $Y2=2.1
r245 33 36 6.81649 $w=1.7e-07 $l=1.20208e-07 $layer=LI1_cond $X=3.335 $Y=2.185
+ $X2=3.42 $Y2=2.1
r246 33 34 65.8931 $w=1.68e-07 $l=1.01e-06 $layer=LI1_cond $X=3.335 $Y=2.185
+ $X2=2.325 $Y2=2.185
r247 29 34 7.76618 $w=1.7e-07 $l=2.03101e-07 $layer=LI1_cond $X=2.16 $Y=2.27
+ $X2=2.325 $Y2=2.185