* File: sky130_fd_sc_lp__sdfrtp_2.pex.spice
* Created: Wed Sep  2 10:34:43 2020
* Program "Calibre xRC"
* Version "v2018.4_34.26"
* Nominal Temperature: 27C
* Circuit Temperature: 27C
* 
.subckt PM_SKY130_FD_SC_LP__SDFRTP_2%A_35_74# 1 2 7 9 12 16 22 27 28 30 31 32 38
r69 31 34 6.16778 $w=8.98e-07 $l=4.55e-07 $layer=LI1_cond $X=0.585 $Y=2.03
+ $X2=0.585 $Y2=2.485
r70 31 32 7.94142 $w=8.98e-07 $l=1e-07 $layer=LI1_cond $X=0.585 $Y=2.03
+ $X2=0.585 $Y2=1.93
r71 28 42 46.2115 $w=3.3e-07 $l=1.65e-07 $layer=POLY_cond $X=2.395 $Y=2.015
+ $X2=2.395 $Y2=2.18
r72 27 28 145.28 $w=1.7e-07 $l=1.7e-07 $layer=licon1_POLY $count=1 $X=2.395
+ $Y=2.015 $X2=2.395 $Y2=2.015
r73 25 31 9.90988 $w=2e-07 $l=4.5e-07 $layer=LI1_cond $X=1.035 $Y=2.03 $X2=0.585
+ $Y2=2.03
r74 25 27 75.4182 $w=1.98e-07 $l=1.36e-06 $layer=LI1_cond $X=1.035 $Y=2.03
+ $X2=2.395 $Y2=2.03
r75 23 38 20.9834 $w=3.3e-07 $l=1.2e-07 $layer=POLY_cond $X=1.345 $Y=0.945
+ $X2=1.465 $Y2=0.945
r76 22 23 145.28 $w=1.7e-07 $l=1.7e-07 $layer=licon1_POLY $count=1 $X=1.345
+ $Y=0.945 $X2=1.345 $Y2=0.945
r77 20 30 2.98021 $w=1.7e-07 $l=1.35e-07 $layer=LI1_cond $X=0.405 $Y=0.945
+ $X2=0.27 $Y2=0.945
r78 20 22 61.3262 $w=1.68e-07 $l=9.4e-07 $layer=LI1_cond $X=0.405 $Y=0.945
+ $X2=1.345 $Y2=0.945
r79 18 30 3.52026 $w=2.65e-07 $l=8.5e-08 $layer=LI1_cond $X=0.27 $Y=1.03
+ $X2=0.27 $Y2=0.945
r80 18 32 38.4148 $w=2.68e-07 $l=9e-07 $layer=LI1_cond $X=0.27 $Y=1.03 $X2=0.27
+ $Y2=1.93
r81 14 30 3.52026 $w=2.65e-07 $l=8.74643e-08 $layer=LI1_cond $X=0.265 $Y=0.86
+ $X2=0.27 $Y2=0.945
r82 14 16 12.4109 $w=2.58e-07 $l=2.8e-07 $layer=LI1_cond $X=0.265 $Y=0.86
+ $X2=0.265 $Y2=0.58
r83 12 42 246.128 $w=1.5e-07 $l=4.8e-07 $layer=POLY_cond $X=2.375 $Y=2.66
+ $X2=2.375 $Y2=2.18
r84 7 38 21.2229 $w=1.5e-07 $l=1.65e-07 $layer=POLY_cond $X=1.465 $Y=0.78
+ $X2=1.465 $Y2=0.945
r85 7 9 102.827 $w=1.5e-07 $l=3.2e-07 $layer=POLY_cond $X=1.465 $Y=0.78
+ $X2=1.465 $Y2=0.46
r86 2 34 300 $w=1.7e-07 $l=1.97864e-07 $layer=licon1_PDIFF $count=2 $X=0.815
+ $Y=2.34 $X2=0.94 $Y2=2.485
r87 1 16 182 $w=1.7e-07 $l=2.65236e-07 $layer=licon1_NDIFF $count=1 $X=0.175
+ $Y=0.37 $X2=0.3 $Y2=0.58
.ends

.subckt PM_SKY130_FD_SC_LP__SDFRTP_2%SCE 3 6 7 8 11 13 17 21 23 24 25 26 27 28
+ 35 39
c67 39 0 1.61331e-19 $X=2.395 $Y=1.295
r68 39 41 46.2115 $w=3.3e-07 $l=1.65e-07 $layer=POLY_cond $X=2.395 $Y=1.295
+ $X2=2.395 $Y2=1.13
r69 39 40 145.28 $w=1.7e-07 $l=1.7e-07 $layer=licon1_POLY $count=1 $X=2.395
+ $Y=1.295 $X2=2.395 $Y2=1.295
r70 35 37 47.6426 $w=4.75e-07 $l=1.65e-07 $layer=POLY_cond $X=0.677 $Y=1.295
+ $X2=0.677 $Y2=1.13
r71 28 40 15.096 $w=1.78e-07 $l=2.45e-07 $layer=LI1_cond $X=2.64 $Y=1.29
+ $X2=2.395 $Y2=1.29
r72 27 40 14.4798 $w=1.78e-07 $l=2.35e-07 $layer=LI1_cond $X=2.16 $Y=1.29
+ $X2=2.395 $Y2=1.29
r73 26 27 29.5758 $w=1.78e-07 $l=4.8e-07 $layer=LI1_cond $X=1.68 $Y=1.29
+ $X2=2.16 $Y2=1.29
r74 25 26 29.5758 $w=1.78e-07 $l=4.8e-07 $layer=LI1_cond $X=1.2 $Y=1.29 $X2=1.68
+ $Y2=1.29
r75 24 25 29.5758 $w=1.78e-07 $l=4.8e-07 $layer=LI1_cond $X=0.72 $Y=1.29 $X2=1.2
+ $Y2=1.29
r76 24 35 145.28 $w=1.7e-07 $l=1.7e-07 $layer=licon1_POLY $count=1 $X=0.75
+ $Y=1.295 $X2=0.75 $Y2=1.295
r77 21 41 264.074 $w=1.5e-07 $l=5.15e-07 $layer=POLY_cond $X=2.485 $Y=0.615
+ $X2=2.485 $Y2=1.13
r78 15 17 230.745 $w=1.5e-07 $l=4.5e-07 $layer=POLY_cond $X=1.585 $Y=2.21
+ $X2=1.585 $Y2=2.66
r79 14 23 20.4101 $w=1.5e-07 $l=7.5e-08 $layer=POLY_cond $X=1.23 $Y=2.135
+ $X2=1.155 $Y2=2.135
r80 13 15 26.9307 $w=1.5e-07 $l=1.06066e-07 $layer=POLY_cond $X=1.51 $Y=2.135
+ $X2=1.585 $Y2=2.21
r81 13 14 143.574 $w=1.5e-07 $l=2.8e-07 $layer=POLY_cond $X=1.51 $Y=2.135
+ $X2=1.23 $Y2=2.135
r82 9 23 5.30422 $w=1.5e-07 $l=7.5e-08 $layer=POLY_cond $X=1.155 $Y=2.21
+ $X2=1.155 $Y2=2.135
r83 9 11 230.745 $w=1.5e-07 $l=4.5e-07 $layer=POLY_cond $X=1.155 $Y=2.21
+ $X2=1.155 $Y2=2.66
r84 7 23 20.4101 $w=1.5e-07 $l=7.5e-08 $layer=POLY_cond $X=1.08 $Y=2.135
+ $X2=1.155 $Y2=2.135
r85 7 8 84.6064 $w=1.5e-07 $l=1.65e-07 $layer=POLY_cond $X=1.08 $Y=2.135
+ $X2=0.915 $Y2=2.135
r86 6 8 37.7275 $w=1.5e-07 $l=2.72936e-07 $layer=POLY_cond $X=0.677 $Y=2.06
+ $X2=0.915 $Y2=2.135
r87 5 35 8.43012 $w=4.75e-07 $l=7.2e-08 $layer=POLY_cond $X=0.677 $Y=1.367
+ $X2=0.677 $Y2=1.295
r88 5 6 81.1399 $w=4.75e-07 $l=6.93e-07 $layer=POLY_cond $X=0.677 $Y=1.367
+ $X2=0.677 $Y2=2.06
r89 3 37 282.021 $w=1.5e-07 $l=5.5e-07 $layer=POLY_cond $X=0.515 $Y=0.58
+ $X2=0.515 $Y2=1.13
.ends

.subckt PM_SKY130_FD_SC_LP__SDFRTP_2%D 3 5 7 9 10 11 12 13
r36 20 21 145.28 $w=1.7e-07 $l=1.7e-07 $layer=licon1_POLY $count=1 $X=1.825
+ $Y=1.655 $X2=1.825 $Y2=1.655
r37 12 13 25.3506 $w=2.08e-07 $l=4.8e-07 $layer=LI1_cond $X=2.16 $Y=1.655
+ $X2=2.64 $Y2=1.655
r38 12 21 17.6926 $w=2.08e-07 $l=3.35e-07 $layer=LI1_cond $X=2.16 $Y=1.655
+ $X2=1.825 $Y2=1.655
r39 11 21 7.65801 $w=2.08e-07 $l=1.45e-07 $layer=LI1_cond $X=1.68 $Y=1.655
+ $X2=1.825 $Y2=1.655
r40 10 11 25.3506 $w=2.08e-07 $l=4.8e-07 $layer=LI1_cond $X=1.2 $Y=1.655
+ $X2=1.68 $Y2=1.655
r41 9 10 25.3506 $w=2.08e-07 $l=4.8e-07 $layer=LI1_cond $X=0.72 $Y=1.655 $X2=1.2
+ $Y2=1.655
r42 5 20 38.7084 $w=3.43e-07 $l=2.11069e-07 $layer=POLY_cond $X=1.945 $Y=1.82
+ $X2=1.84 $Y2=1.655
r43 5 7 430.723 $w=1.5e-07 $l=8.4e-07 $layer=POLY_cond $X=1.945 $Y=1.82
+ $X2=1.945 $Y2=2.66
r44 1 20 38.7084 $w=3.43e-07 $l=1.72337e-07 $layer=POLY_cond $X=1.825 $Y=1.49
+ $X2=1.84 $Y2=1.655
r45 1 3 528.149 $w=1.5e-07 $l=1.03e-06 $layer=POLY_cond $X=1.825 $Y=1.49
+ $X2=1.825 $Y2=0.46
.ends

.subckt PM_SKY130_FD_SC_LP__SDFRTP_2%SCD 1 3 7 12 13 14 15 20
c46 3 0 1.91378e-19 $X=2.845 $Y=0.615
r47 20 21 72.64 $w=1.7e-07 $l=3.4e-07 $layer=licon1_POLY $count=2 $X=2.99
+ $Y=1.49 $X2=2.99 $Y2=1.49
r48 14 15 11.2212 $w=3.78e-07 $l=3.7e-07 $layer=LI1_cond $X=3.095 $Y=1.665
+ $X2=3.095 $Y2=2.035
r49 14 21 5.3073 $w=3.78e-07 $l=1.75e-07 $layer=LI1_cond $X=3.095 $Y=1.665
+ $X2=3.095 $Y2=1.49
r50 13 21 5.91385 $w=3.78e-07 $l=1.95e-07 $layer=LI1_cond $X=3.095 $Y=1.295
+ $X2=3.095 $Y2=1.49
r51 11 20 62.0758 $w=3.3e-07 $l=3.55e-07 $layer=POLY_cond $X=2.99 $Y=1.845
+ $X2=2.99 $Y2=1.49
r52 11 12 43.5886 $w=3.3e-07 $l=1.5e-07 $layer=POLY_cond $X=2.962 $Y=1.845
+ $X2=2.962 $Y2=1.995
r53 9 20 27.1035 $w=3.3e-07 $l=1.55e-07 $layer=POLY_cond $X=2.99 $Y=1.335
+ $X2=2.99 $Y2=1.49
r54 7 12 340.989 $w=1.5e-07 $l=6.65e-07 $layer=POLY_cond $X=2.845 $Y=2.66
+ $X2=2.845 $Y2=1.995
r55 1 9 33.318 $w=2.17e-07 $l=2.10357e-07 $layer=POLY_cond $X=2.845 $Y=1.185
+ $X2=2.99 $Y2=1.335
r56 1 3 292.277 $w=1.5e-07 $l=5.7e-07 $layer=POLY_cond $X=2.845 $Y=1.185
+ $X2=2.845 $Y2=0.615
.ends

.subckt PM_SKY130_FD_SC_LP__SDFRTP_2%A_756_265# 1 2 9 13 14 16 17 18 21 24 26 27
+ 29 31 35 36 38 39 40 41 42 43 46 55 59 63 64 65 67
c202 43 0 2.29156e-19 $X=7.585 $Y=1.295
c203 39 0 1.50829e-19 $X=4.225 $Y=1.295
c204 36 0 3.488e-20 $X=7.91 $Y=2.26
c205 35 0 7.03183e-20 $X=7.91 $Y=2.26
c206 31 0 1.46831e-19 $X=7.725 $Y=1.26
c207 9 0 1.50059e-19 $X=3.965 $Y=2.525
r208 70 71 145.28 $w=1.7e-07 $l=1.7e-07 $layer=licon1_POLY $count=1 $X=7.44
+ $Y=1.26 $X2=7.44 $Y2=1.26
r209 67 70 15.7375 $w=3.3e-07 $l=9e-08 $layer=POLY_cond $X=7.44 $Y=1.17 $X2=7.44
+ $Y2=1.26
r210 63 65 46.2115 $w=3.3e-07 $l=1.65e-07 $layer=POLY_cond $X=4.9 $Y=1.29
+ $X2=4.9 $Y2=1.125
r211 63 64 145.28 $w=1.7e-07 $l=1.7e-07 $layer=licon1_POLY $count=1 $X=4.9
+ $Y=1.29 $X2=4.9 $Y2=1.29
r212 59 60 72.64 $w=1.7e-07 $l=3.4e-07 $layer=licon1_POLY $count=2 $X=3.945
+ $Y=1.49 $X2=3.945 $Y2=1.49
r213 56 87 5.81596 $w=4.51e-07 $l=2.15e-07 $layer=LI1_cond $X=10.455 $Y=1.295
+ $X2=10.455 $Y2=1.08
r214 55 56 9.3 $w=1.7e-07 $l=1.7e-07 $layer=mcon $count=1 $X=10.32 $Y=1.295
+ $X2=10.32 $Y2=1.295
r215 52 71 9.3 $w=1.7e-07 $l=1.7e-07 $layer=mcon $count=1 $X=7.44 $Y=1.295
+ $X2=7.44 $Y2=1.295
r216 49 64 9.3 $w=1.7e-07 $l=1.7e-07 $layer=mcon $count=1 $X=5.04 $Y=1.295
+ $X2=5.04 $Y2=1.295
r217 46 60 6.15689 $w=3.63e-07 $l=1.95e-07 $layer=LI1_cond $X=4.032 $Y=1.295
+ $X2=4.032 $Y2=1.49
r218 45 46 9.3 $w=1.7e-07 $l=1.7e-07 $layer=mcon $count=1 $X=4.08 $Y=1.295
+ $X2=4.08 $Y2=1.295
r219 43 52 0.115467 $w=2.3e-07 $l=1.45e-07 $layer=MET1_cond $X=7.585 $Y=1.295
+ $X2=7.44 $Y2=1.295
r220 42 55 0.115467 $w=2.3e-07 $l=1.45e-07 $layer=MET1_cond $X=10.175 $Y=1.295
+ $X2=10.32 $Y2=1.295
r221 42 43 3.20544 $w=1.4e-07 $l=2.59e-06 $layer=MET1_cond $X=10.175 $Y=1.295
+ $X2=7.585 $Y2=1.295
r222 41 49 0.115467 $w=2.3e-07 $l=1.45e-07 $layer=MET1_cond $X=5.185 $Y=1.295
+ $X2=5.04 $Y2=1.295
r223 40 52 0.115467 $w=2.3e-07 $l=1.45e-07 $layer=MET1_cond $X=7.295 $Y=1.295
+ $X2=7.44 $Y2=1.295
r224 40 41 2.61138 $w=1.4e-07 $l=2.11e-06 $layer=MET1_cond $X=7.295 $Y=1.295
+ $X2=5.185 $Y2=1.295
r225 39 45 0.115467 $w=2.3e-07 $l=1.45e-07 $layer=MET1_cond $X=4.225 $Y=1.295
+ $X2=4.08 $Y2=1.295
r226 38 49 0.115467 $w=2.3e-07 $l=1.45e-07 $layer=MET1_cond $X=4.895 $Y=1.295
+ $X2=5.04 $Y2=1.295
r227 38 39 0.829206 $w=1.4e-07 $l=6.7e-07 $layer=MET1_cond $X=4.895 $Y=1.295
+ $X2=4.225 $Y2=1.295
r228 36 73 24.4806 $w=3.3e-07 $l=1.4e-07 $layer=POLY_cond $X=7.91 $Y=2.26
+ $X2=7.77 $Y2=2.26
r229 35 36 145.28 $w=1.7e-07 $l=1.7e-07 $layer=licon1_POLY $count=1 $X=7.91
+ $Y=2.26 $X2=7.91 $Y2=2.26
r230 32 35 4.43247 $w=2.58e-07 $l=1e-07 $layer=LI1_cond $X=7.81 $Y=2.225
+ $X2=7.91 $Y2=2.225
r231 31 71 9.95292 $w=3.28e-07 $l=2.85e-07 $layer=LI1_cond $X=7.725 $Y=1.26
+ $X2=7.44 $Y2=1.26
r232 27 56 5.68638 $w=4.51e-07 $l=1.52971e-07 $layer=LI1_cond $X=10.505 $Y=1.425
+ $X2=10.455 $Y2=1.295
r233 27 29 24.6002 $w=2.58e-07 $l=5.55e-07 $layer=LI1_cond $X=10.505 $Y=1.425
+ $X2=10.505 $Y2=1.98
r234 26 32 3.22376 $w=1.7e-07 $l=1.3e-07 $layer=LI1_cond $X=7.81 $Y=2.095
+ $X2=7.81 $Y2=2.225
r235 25 31 7.76618 $w=3.3e-07 $l=2.03101e-07 $layer=LI1_cond $X=7.81 $Y=1.425
+ $X2=7.725 $Y2=1.26
r236 25 26 43.7112 $w=1.68e-07 $l=6.7e-07 $layer=LI1_cond $X=7.81 $Y=1.425
+ $X2=7.81 $Y2=2.095
r237 23 59 59.4528 $w=3.3e-07 $l=3.4e-07 $layer=POLY_cond $X=3.945 $Y=1.83
+ $X2=3.945 $Y2=1.49
r238 23 24 38.6168 $w=3.3e-07 $l=1.65e-07 $layer=POLY_cond $X=3.945 $Y=1.83
+ $X2=3.945 $Y2=1.995
r239 19 73 21.2229 $w=1.5e-07 $l=1.65e-07 $layer=POLY_cond $X=7.77 $Y=2.425
+ $X2=7.77 $Y2=2.26
r240 19 21 233.309 $w=1.5e-07 $l=4.55e-07 $layer=POLY_cond $X=7.77 $Y=2.425
+ $X2=7.77 $Y2=2.88
r241 17 67 21.2229 $w=1.5e-07 $l=1.65e-07 $layer=POLY_cond $X=7.275 $Y=1.17
+ $X2=7.44 $Y2=1.17
r242 17 18 125.628 $w=1.5e-07 $l=2.45e-07 $layer=POLY_cond $X=7.275 $Y=1.17
+ $X2=7.03 $Y2=1.17
r243 14 18 26.9307 $w=1.5e-07 $l=1.06066e-07 $layer=POLY_cond $X=6.955 $Y=1.095
+ $X2=7.03 $Y2=1.17
r244 14 16 138.173 $w=1.5e-07 $l=4.3e-07 $layer=POLY_cond $X=6.955 $Y=1.095
+ $X2=6.955 $Y2=0.665
r245 13 65 102.827 $w=1.5e-07 $l=3.2e-07 $layer=POLY_cond $X=4.88 $Y=0.805
+ $X2=4.88 $Y2=1.125
r246 9 24 271.766 $w=1.5e-07 $l=5.3e-07 $layer=POLY_cond $X=3.965 $Y=2.525
+ $X2=3.965 $Y2=1.995
r247 2 29 600 $w=1.7e-07 $l=1.97864e-07 $layer=licon1_PDIFF $count=1 $X=10.415
+ $Y=1.835 $X2=10.54 $Y2=1.98
r248 1 87 182 $w=1.7e-07 $l=7.84156e-07 $layer=licon1_NDIFF $count=1 $X=10.39
+ $Y=0.365 $X2=10.535 $Y2=1.08
.ends

.subckt PM_SKY130_FD_SC_LP__SDFRTP_2%A_936_333# 1 2 9 11 15 18 20 21 25 28 29 35
+ 39 44
c99 29 0 1.20546e-19 $X=4.867 $Y=1.685
r100 36 39 11.0909 $w=1.88e-07 $l=1.9e-07 $layer=LI1_cond $X=6.745 $Y=2.04
+ $X2=6.935 $Y2=2.04
r101 33 44 46.2115 $w=3.3e-07 $l=1.65e-07 $layer=POLY_cond $X=4.845 $Y=1.83
+ $X2=5.01 $Y2=1.83
r102 33 41 15.7375 $w=3.3e-07 $l=9e-08 $layer=POLY_cond $X=4.845 $Y=1.83
+ $X2=4.755 $Y2=1.83
r103 32 33 145.28 $w=1.7e-07 $l=1.7e-07 $layer=licon1_POLY $count=1 $X=4.845
+ $Y=1.83 $X2=4.845 $Y2=1.83
r104 29 32 5.86331 $w=2.83e-07 $l=1.45e-07 $layer=LI1_cond $X=4.867 $Y=1.685
+ $X2=4.867 $Y2=1.83
r105 28 36 1.04402 $w=1.8e-07 $l=9.5e-08 $layer=LI1_cond $X=6.745 $Y=1.945
+ $X2=6.745 $Y2=2.04
r106 27 35 4.81226 $w=1.85e-07 $l=8.74643e-08 $layer=LI1_cond $X=6.745 $Y=1.77
+ $X2=6.74 $Y2=1.685
r107 27 28 10.7828 $w=1.78e-07 $l=1.75e-07 $layer=LI1_cond $X=6.745 $Y=1.77
+ $X2=6.745 $Y2=1.945
r108 23 35 4.81226 $w=1.85e-07 $l=8.5e-08 $layer=LI1_cond $X=6.74 $Y=1.6
+ $X2=6.74 $Y2=1.685
r109 23 25 64.7943 $w=1.88e-07 $l=1.11e-06 $layer=LI1_cond $X=6.74 $Y=1.6
+ $X2=6.74 $Y2=0.49
r110 22 29 3.76007 $w=1.7e-07 $l=1.43e-07 $layer=LI1_cond $X=5.01 $Y=1.685
+ $X2=4.867 $Y2=1.685
r111 21 35 1.64875 $w=1.7e-07 $l=9.5e-08 $layer=LI1_cond $X=6.645 $Y=1.685
+ $X2=6.74 $Y2=1.685
r112 21 22 106.668 $w=1.68e-07 $l=1.635e-06 $layer=LI1_cond $X=6.645 $Y=1.685
+ $X2=5.01 $Y2=1.685
r113 19 20 58.3064 $w=1.8e-07 $l=1.5e-07 $layer=POLY_cond $X=5.365 $Y=1.275
+ $X2=5.365 $Y2=1.425
r114 18 20 138.447 $w=1.5e-07 $l=2.7e-07 $layer=POLY_cond $X=5.38 $Y=1.695
+ $X2=5.38 $Y2=1.425
r115 15 19 241 $w=1.5e-07 $l=4.7e-07 $layer=POLY_cond $X=5.35 $Y=0.805 $X2=5.35
+ $Y2=1.275
r116 11 18 26.9307 $w=1.5e-07 $l=1.06066e-07 $layer=POLY_cond $X=5.305 $Y=1.77
+ $X2=5.38 $Y2=1.695
r117 11 44 151.266 $w=1.5e-07 $l=2.95e-07 $layer=POLY_cond $X=5.305 $Y=1.77
+ $X2=5.01 $Y2=1.77
r118 7 41 21.2229 $w=1.5e-07 $l=1.65e-07 $layer=POLY_cond $X=4.755 $Y=1.995
+ $X2=4.755 $Y2=1.83
r119 7 9 271.766 $w=1.5e-07 $l=5.3e-07 $layer=POLY_cond $X=4.755 $Y=1.995
+ $X2=4.755 $Y2=2.525
r120 2 39 600 $w=1.7e-07 $l=2.03286e-07 $layer=licon1_PDIFF $count=1 $X=6.795
+ $Y=1.895 $X2=6.935 $Y2=2.04
r121 1 25 91 $w=1.7e-07 $l=2.03286e-07 $layer=licon1_NDIFF $count=2 $X=6.6
+ $Y=0.345 $X2=6.74 $Y2=0.49
.ends

.subckt PM_SKY130_FD_SC_LP__SDFRTP_2%RESET_B 4 5 6 9 11 12 14 15 17 19 20 21 27
+ 30 32 33 36 43 45 46 47 48 51 56 57 61 64 66 70
c203 56 0 9.68445e-20 $X=9.24 $Y=2.345
c204 30 0 2.88588e-20 $X=8.97 $Y=0.805
c205 4 0 1.06522e-19 $X=3.29 $Y=0.615
r206 64 67 14.8159 $w=3.7e-07 $l=9.5e-08 $layer=POLY_cond $X=5.94 $Y=2.035
+ $X2=5.94 $Y2=2.13
r207 64 66 46.7569 $w=3.7e-07 $l=1.65e-07 $layer=POLY_cond $X=5.94 $Y=2.035
+ $X2=5.94 $Y2=1.87
r208 61 64 72.64 $w=1.7e-07 $l=3.4e-07 $layer=licon1_POLY $count=2 $X=5.96
+ $Y=2.035 $X2=5.96 $Y2=2.035
r209 57 71 46.2115 $w=3.3e-07 $l=1.65e-07 $layer=POLY_cond $X=9.24 $Y=2.345
+ $X2=9.24 $Y2=2.51
r210 57 70 46.2115 $w=3.3e-07 $l=1.65e-07 $layer=POLY_cond $X=9.24 $Y=2.345
+ $X2=9.24 $Y2=2.18
r211 56 59 9.25447 $w=3.28e-07 $l=2.65e-07 $layer=LI1_cond $X=9.24 $Y=2.345
+ $X2=9.24 $Y2=2.61
r212 56 57 145.28 $w=1.7e-07 $l=1.7e-07 $layer=licon1_POLY $count=1 $X=9.24
+ $Y=2.345 $X2=9.24 $Y2=2.345
r213 51 53 14.3529 $w=1.68e-07 $l=2.2e-07 $layer=LI1_cond $X=6.84 $Y=2.39
+ $X2=6.84 $Y2=2.61
r214 50 61 9.42908 $w=3.28e-07 $l=2.7e-07 $layer=LI1_cond $X=5.96 $Y=2.305
+ $X2=5.96 $Y2=2.035
r215 49 53 0.716491 $w=1.7e-07 $l=8.5e-08 $layer=LI1_cond $X=6.925 $Y=2.61
+ $X2=6.84 $Y2=2.61
r216 48 59 4.62375 $w=1.7e-07 $l=1.65e-07 $layer=LI1_cond $X=9.075 $Y=2.61
+ $X2=9.24 $Y2=2.61
r217 48 49 140.267 $w=1.68e-07 $l=2.15e-06 $layer=LI1_cond $X=9.075 $Y=2.61
+ $X2=6.925 $Y2=2.61
r218 47 50 7.76618 $w=1.7e-07 $l=2.03101e-07 $layer=LI1_cond $X=6.125 $Y=2.39
+ $X2=5.96 $Y2=2.305
r219 46 51 0.716491 $w=1.7e-07 $l=8.5e-08 $layer=LI1_cond $X=6.755 $Y=2.39
+ $X2=6.84 $Y2=2.39
r220 46 47 41.1016 $w=1.68e-07 $l=6.3e-07 $layer=LI1_cond $X=6.755 $Y=2.39
+ $X2=6.125 $Y2=2.39
r221 45 66 320.479 $w=1.5e-07 $l=6.25e-07 $layer=POLY_cond $X=5.83 $Y=1.245
+ $X2=5.83 $Y2=1.87
r222 44 45 58.3064 $w=1.8e-07 $l=1.5e-07 $layer=POLY_cond $X=5.845 $Y=1.095
+ $X2=5.845 $Y2=1.245
r223 40 42 76.9149 $w=1.5e-07 $l=1.5e-07 $layer=POLY_cond $X=3.29 $Y=1.01
+ $X2=3.44 $Y2=1.01
r224 38 70 264.074 $w=1.5e-07 $l=5.15e-07 $layer=POLY_cond $X=9.33 $Y=1.665
+ $X2=9.33 $Y2=2.18
r225 36 71 189.723 $w=1.5e-07 $l=3.7e-07 $layer=POLY_cond $X=9.26 $Y=2.88
+ $X2=9.26 $Y2=2.51
r226 32 38 26.9307 $w=1.5e-07 $l=1.06066e-07 $layer=POLY_cond $X=9.255 $Y=1.59
+ $X2=9.33 $Y2=1.665
r227 32 33 107.681 $w=1.5e-07 $l=2.1e-07 $layer=POLY_cond $X=9.255 $Y=1.59
+ $X2=9.045 $Y2=1.59
r228 28 33 26.9307 $w=1.5e-07 $l=1.06066e-07 $layer=POLY_cond $X=8.97 $Y=1.515
+ $X2=9.045 $Y2=1.59
r229 28 30 364.064 $w=1.5e-07 $l=7.1e-07 $layer=POLY_cond $X=8.97 $Y=1.515
+ $X2=8.97 $Y2=0.805
r230 27 44 164.085 $w=1.5e-07 $l=3.2e-07 $layer=POLY_cond $X=5.86 $Y=0.775
+ $X2=5.86 $Y2=1.095
r231 24 27 266.638 $w=1.5e-07 $l=5.2e-07 $layer=POLY_cond $X=5.86 $Y=0.255
+ $X2=5.86 $Y2=0.775
r232 20 67 23.9667 $w=1.5e-07 $l=1.85e-07 $layer=POLY_cond $X=5.755 $Y=2.13
+ $X2=5.94 $Y2=2.13
r233 20 21 197.415 $w=1.5e-07 $l=3.85e-07 $layer=POLY_cond $X=5.755 $Y=2.13
+ $X2=5.37 $Y2=2.13
r234 17 21 26.9307 $w=1.5e-07 $l=1.06066e-07 $layer=POLY_cond $X=5.295 $Y=2.205
+ $X2=5.37 $Y2=2.13
r235 17 19 102.827 $w=1.5e-07 $l=3.2e-07 $layer=POLY_cond $X=5.295 $Y=2.205
+ $X2=5.295 $Y2=2.525
r236 16 43 20.4101 $w=1.5e-07 $l=7.5e-08 $layer=POLY_cond $X=3.92 $Y=0.18
+ $X2=3.845 $Y2=0.18
r237 15 24 26.9307 $w=1.5e-07 $l=1.06066e-07 $layer=POLY_cond $X=5.785 $Y=0.18
+ $X2=5.86 $Y2=0.255
r238 15 16 956.309 $w=1.5e-07 $l=1.865e-06 $layer=POLY_cond $X=5.785 $Y=0.18
+ $X2=3.92 $Y2=0.18
r239 13 43 5.30422 $w=1.5e-07 $l=7.5e-08 $layer=POLY_cond $X=3.845 $Y=0.255
+ $X2=3.845 $Y2=0.18
r240 13 14 348.681 $w=1.5e-07 $l=6.8e-07 $layer=POLY_cond $X=3.845 $Y=0.255
+ $X2=3.845 $Y2=0.935
r241 12 42 38.4574 $w=1.5e-07 $l=7.5e-08 $layer=POLY_cond $X=3.515 $Y=1.01
+ $X2=3.44 $Y2=1.01
r242 11 14 26.9307 $w=1.5e-07 $l=1.06066e-07 $layer=POLY_cond $X=3.77 $Y=1.01
+ $X2=3.845 $Y2=0.935
r243 11 12 130.755 $w=1.5e-07 $l=2.55e-07 $layer=POLY_cond $X=3.77 $Y=1.01
+ $X2=3.515 $Y2=1.01
r244 7 42 2.83073 $w=1.5e-07 $l=7.5e-08 $layer=POLY_cond $X=3.44 $Y=1.085
+ $X2=3.44 $Y2=1.01
r245 7 9 794.787 $w=1.5e-07 $l=1.55e-06 $layer=POLY_cond $X=3.44 $Y=1.085
+ $X2=3.44 $Y2=2.635
r246 5 43 20.4101 $w=1.5e-07 $l=7.5e-08 $layer=POLY_cond $X=3.77 $Y=0.18
+ $X2=3.845 $Y2=0.18
r247 5 6 207.67 $w=1.5e-07 $l=4.05e-07 $layer=POLY_cond $X=3.77 $Y=0.18
+ $X2=3.365 $Y2=0.18
r248 2 40 2.83073 $w=1.5e-07 $l=7.5e-08 $layer=POLY_cond $X=3.29 $Y=0.935
+ $X2=3.29 $Y2=1.01
r249 2 4 164.085 $w=1.5e-07 $l=3.2e-07 $layer=POLY_cond $X=3.29 $Y=0.935
+ $X2=3.29 $Y2=0.615
r250 1 6 26.9307 $w=1.5e-07 $l=1.06066e-07 $layer=POLY_cond $X=3.29 $Y=0.255
+ $X2=3.365 $Y2=0.18
r251 1 4 184.596 $w=1.5e-07 $l=3.6e-07 $layer=POLY_cond $X=3.29 $Y=0.255
+ $X2=3.29 $Y2=0.615
.ends

.subckt PM_SKY130_FD_SC_LP__SDFRTP_2%A_808_463# 1 2 3 10 12 15 19 22 23 25 29 33
+ 36 41 43
c119 41 0 1.20546e-19 $X=4.8 $Y=0.817
c120 15 0 9.3538e-21 $X=6.72 $Y=2.315
r121 40 41 6.28949 $w=3.53e-07 $l=1.35e-07 $layer=LI1_cond $X=4.665 $Y=0.817
+ $X2=4.8 $Y2=0.817
r122 37 40 6.33032 $w=3.53e-07 $l=1.95e-07 $layer=LI1_cond $X=4.47 $Y=0.817
+ $X2=4.665 $Y2=0.817
r123 34 43 31.9846 $w=3.24e-07 $l=2.15e-07 $layer=POLY_cond $X=6.31 $Y=1.365
+ $X2=6.525 $Y2=1.365
r124 33 34 145.28 $w=1.7e-07 $l=1.7e-07 $layer=licon1_POLY $count=1 $X=6.31
+ $Y=1.26 $X2=6.31 $Y2=1.26
r125 31 33 9.25447 $w=3.28e-07 $l=2.65e-07 $layer=LI1_cond $X=6.31 $Y=0.995
+ $X2=6.31 $Y2=1.26
r126 27 29 7.89637 $w=2.68e-07 $l=1.85e-07 $layer=LI1_cond $X=5.49 $Y=2.345
+ $X2=5.49 $Y2=2.53
r127 25 31 7.26367 $w=2.1e-07 $l=2.11069e-07 $layer=LI1_cond $X=6.145 $Y=0.89
+ $X2=6.31 $Y2=0.995
r128 25 41 71.0346 $w=2.08e-07 $l=1.345e-06 $layer=LI1_cond $X=6.145 $Y=0.89
+ $X2=4.8 $Y2=0.89
r129 24 36 2.76166 $w=1.7e-07 $l=2.5e-07 $layer=LI1_cond $X=4.555 $Y=2.26
+ $X2=4.305 $Y2=2.26
r130 23 27 7.28469 $w=1.7e-07 $l=1.72337e-07 $layer=LI1_cond $X=5.355 $Y=2.26
+ $X2=5.49 $Y2=2.345
r131 23 24 52.1925 $w=1.68e-07 $l=8e-07 $layer=LI1_cond $X=5.355 $Y=2.26
+ $X2=4.555 $Y2=2.26
r132 22 36 3.70735 $w=2.5e-07 $l=2.03101e-07 $layer=LI1_cond $X=4.47 $Y=2.175
+ $X2=4.305 $Y2=2.26
r133 21 37 5.0588 $w=1.7e-07 $l=1.78e-07 $layer=LI1_cond $X=4.47 $Y=0.995
+ $X2=4.47 $Y2=0.817
r134 21 22 76.984 $w=1.68e-07 $l=1.18e-06 $layer=LI1_cond $X=4.47 $Y=0.995
+ $X2=4.47 $Y2=2.175
r135 17 36 3.70735 $w=2.5e-07 $l=1.20208e-07 $layer=LI1_cond $X=4.22 $Y=2.345
+ $X2=4.305 $Y2=2.26
r136 17 19 6.46067 $w=3.28e-07 $l=1.85e-07 $layer=LI1_cond $X=4.22 $Y=2.345
+ $X2=4.22 $Y2=2.53
r137 13 43 29.0093 $w=3.24e-07 $l=3.5433e-07 $layer=POLY_cond $X=6.72 $Y=1.635
+ $X2=6.525 $Y2=1.365
r138 13 15 348.681 $w=1.5e-07 $l=6.8e-07 $layer=POLY_cond $X=6.72 $Y=1.635
+ $X2=6.72 $Y2=2.315
r139 10 43 20.7868 $w=1.5e-07 $l=2.7e-07 $layer=POLY_cond $X=6.525 $Y=1.095
+ $X2=6.525 $Y2=1.365
r140 10 12 138.173 $w=1.5e-07 $l=4.3e-07 $layer=POLY_cond $X=6.525 $Y=1.095
+ $X2=6.525 $Y2=0.665
r141 3 29 600 $w=1.7e-07 $l=2.7627e-07 $layer=licon1_PDIFF $count=1 $X=5.37
+ $Y=2.315 $X2=5.51 $Y2=2.53
r142 2 19 600 $w=1.7e-07 $l=2.7627e-07 $layer=licon1_PDIFF $count=1 $X=4.04
+ $Y=2.315 $X2=4.18 $Y2=2.53
r143 1 40 182 $w=1.7e-07 $l=2.71109e-07 $layer=licon1_NDIFF $count=1 $X=4.525
+ $Y=0.595 $X2=4.665 $Y2=0.805
.ends

.subckt PM_SKY130_FD_SC_LP__SDFRTP_2%A_864_255# 1 2 10 13 15 16 20 21 22 25 29
+ 33 36 38 39 40 42 43 44 45 46 48 51 56 57 61
c198 56 0 3.25675e-20 $X=10.89 $Y=1.51
c199 51 0 1.2669e-20 $X=8.16 $Y=1.72
c200 45 0 1.04785e-19 $X=11.132 $Y=1.672
c201 40 0 1.90875e-19 $X=8.325 $Y=1.645
c202 39 0 1.47127e-19 $X=9.935 $Y=1.645
c203 38 0 1.77274e-19 $X=7.89 $Y=1.72
c204 21 0 5.76493e-20 $X=7.815 $Y=1.71
r205 58 61 7.40856 $w=2.78e-07 $l=1.8e-07 $layer=LI1_cond $X=11.375 $Y=2.8
+ $X2=11.555 $Y2=2.8
r206 56 67 45.2517 $w=3.8e-07 $l=1.65e-07 $layer=POLY_cond $X=10.865 $Y=1.51
+ $X2=10.865 $Y2=1.675
r207 56 66 45.2517 $w=3.8e-07 $l=1.65e-07 $layer=POLY_cond $X=10.865 $Y=1.51
+ $X2=10.865 $Y2=1.345
r208 55 56 145.28 $w=1.7e-07 $l=1.7e-07 $layer=licon1_POLY $count=1 $X=10.89
+ $Y=1.51 $X2=10.89 $Y2=1.51
r209 53 55 10.513 $w=4.99e-07 $l=6.90293e-07 $layer=LI1_cond $X=11.555 $Y=1.08
+ $X2=11.047 $Y2=1.51
r210 50 51 145.28 $w=1.7e-07 $l=1.7e-07 $layer=licon1_POLY $count=1 $X=8.16
+ $Y=1.72 $X2=8.16 $Y2=1.72
r211 48 58 3.65648 $w=1.7e-07 $l=1.4e-07 $layer=LI1_cond $X=11.375 $Y=2.66
+ $X2=11.375 $Y2=2.8
r212 47 57 2.35019 $w=4.12e-07 $l=2.82319e-07 $layer=LI1_cond $X=11.375 $Y=2.495
+ $X2=11.132 $Y2=2.41
r213 47 48 10.7647 $w=1.68e-07 $l=1.65e-07 $layer=LI1_cond $X=11.375 $Y=2.495
+ $X2=11.375 $Y2=2.66
r214 46 57 2.35019 $w=4.12e-07 $l=8.5e-08 $layer=LI1_cond $X=11.132 $Y=2.325
+ $X2=11.132 $Y2=2.41
r215 45 55 3.73927 $w=6.55e-07 $l=2.00035e-07 $layer=LI1_cond $X=11.132 $Y=1.672
+ $X2=11.047 $Y2=1.51
r216 45 46 11.9243 $w=6.53e-07 $l=6.53e-07 $layer=LI1_cond $X=11.132 $Y=1.672
+ $X2=11.132 $Y2=2.325
r217 43 57 4.66114 $w=1.7e-07 $l=3.27e-07 $layer=LI1_cond $X=10.805 $Y=2.41
+ $X2=11.132 $Y2=2.41
r218 43 44 45.6684 $w=1.68e-07 $l=7e-07 $layer=LI1_cond $X=10.805 $Y=2.41
+ $X2=10.105 $Y2=2.41
r219 42 44 6.81649 $w=1.7e-07 $l=1.20208e-07 $layer=LI1_cond $X=10.02 $Y=2.325
+ $X2=10.105 $Y2=2.41
r220 41 42 38.8182 $w=1.68e-07 $l=5.95e-07 $layer=LI1_cond $X=10.02 $Y=1.73
+ $X2=10.02 $Y2=2.325
r221 40 50 8.95713 $w=3.28e-07 $l=1.98997e-07 $layer=LI1_cond $X=8.325 $Y=1.645
+ $X2=8.16 $Y2=1.72
r222 39 41 6.81649 $w=1.7e-07 $l=1.20208e-07 $layer=LI1_cond $X=9.935 $Y=1.645
+ $X2=10.02 $Y2=1.73
r223 39 40 105.037 $w=1.68e-07 $l=1.61e-06 $layer=LI1_cond $X=9.935 $Y=1.645
+ $X2=8.325 $Y2=1.645
r224 37 51 34.0979 $w=3.3e-07 $l=1.95e-07 $layer=POLY_cond $X=7.965 $Y=1.72
+ $X2=8.16 $Y2=1.72
r225 37 38 13.5877 $w=2.4e-07 $l=7.5e-08 $layer=POLY_cond $X=7.965 $Y=1.72
+ $X2=7.89 $Y2=1.72
r226 35 36 48.5235 $w=2.05e-07 $l=1.5e-07 $layer=POLY_cond $X=4.422 $Y=1.275
+ $X2=4.422 $Y2=1.425
r227 33 67 405.085 $w=1.5e-07 $l=7.9e-07 $layer=POLY_cond $X=10.755 $Y=2.465
+ $X2=10.755 $Y2=1.675
r228 29 66 287.149 $w=1.5e-07 $l=5.6e-07 $layer=POLY_cond $X=10.75 $Y=0.785
+ $X2=10.75 $Y2=1.345
r229 23 38 12.1617 $w=1.5e-07 $l=1.65e-07 $layer=POLY_cond $X=7.89 $Y=1.555
+ $X2=7.89 $Y2=1.72
r230 23 25 399.957 $w=1.5e-07 $l=7.8e-07 $layer=POLY_cond $X=7.89 $Y=1.555
+ $X2=7.89 $Y2=0.775
r231 21 38 13.5877 $w=2.4e-07 $l=7.98436e-08 $layer=POLY_cond $X=7.815 $Y=1.71
+ $X2=7.89 $Y2=1.72
r232 21 22 302.532 $w=1.5e-07 $l=5.9e-07 $layer=POLY_cond $X=7.815 $Y=1.71
+ $X2=7.225 $Y2=1.71
r233 18 20 389.702 $w=1.5e-07 $l=7.6e-07 $layer=POLY_cond $X=7.15 $Y=3.075
+ $X2=7.15 $Y2=2.315
r234 17 22 26.9307 $w=1.5e-07 $l=1.06066e-07 $layer=POLY_cond $X=7.15 $Y=1.785
+ $X2=7.225 $Y2=1.71
r235 17 20 271.766 $w=1.5e-07 $l=5.3e-07 $layer=POLY_cond $X=7.15 $Y=1.785
+ $X2=7.15 $Y2=2.315
r236 15 18 26.9307 $w=1.5e-07 $l=1.06066e-07 $layer=POLY_cond $X=7.075 $Y=3.15
+ $X2=7.15 $Y2=3.075
r237 15 16 1335.76 $w=1.5e-07 $l=2.605e-06 $layer=POLY_cond $X=7.075 $Y=3.15
+ $X2=4.47 $Y2=3.15
r238 13 35 241 $w=1.5e-07 $l=4.7e-07 $layer=POLY_cond $X=4.45 $Y=0.805 $X2=4.45
+ $Y2=1.275
r239 10 36 564.043 $w=1.5e-07 $l=1.1e-06 $layer=POLY_cond $X=4.395 $Y=2.525
+ $X2=4.395 $Y2=1.425
r240 8 16 26.9307 $w=1.5e-07 $l=1.06066e-07 $layer=POLY_cond $X=4.395 $Y=3.075
+ $X2=4.47 $Y2=3.15
r241 8 10 282.021 $w=1.5e-07 $l=5.5e-07 $layer=POLY_cond $X=4.395 $Y=3.075
+ $X2=4.395 $Y2=2.525
r242 2 61 600 $w=1.7e-07 $l=9.97547e-07 $layer=licon1_PDIFF $count=1 $X=11.415
+ $Y=1.835 $X2=11.555 $Y2=2.765
r243 1 53 182 $w=1.7e-07 $l=7.81873e-07 $layer=licon1_NDIFF $count=1 $X=11.415
+ $Y=0.365 $X2=11.555 $Y2=1.08
.ends

.subckt PM_SKY130_FD_SC_LP__SDFRTP_2%A_1406_69# 1 2 7 9 10 11 14 18 22 24 27 28
+ 29 30 34 36 39 40 41 46 47 48 50 60 62
c197 41 0 1.33016e-19 $X=8.235 $Y=1.29
c198 39 0 9.61405e-20 $X=8.15 $Y=1.205
c199 36 0 9.3538e-21 $X=7.405 $Y=2.19
c200 34 0 1.77274e-19 $X=7.412 $Y=1.775
c201 11 0 1.47127e-19 $X=9.405 $Y=1.2
r202 59 60 72.64 $w=1.7e-07 $l=3.4e-07 $layer=licon1_POLY $count=2 $X=12.375
+ $Y=1.08 $X2=12.375 $Y2=1.08
r203 50 59 12.3906 $w=3.84e-07 $l=5.01548e-07 $layer=LI1_cond $X=11.985 $Y=0.995
+ $X2=12.375 $Y2=1.25
r204 49 50 11.7433 $w=1.68e-07 $l=1.8e-07 $layer=LI1_cond $X=11.985 $Y=0.815
+ $X2=11.985 $Y2=0.995
r205 47 49 6.81649 $w=1.7e-07 $l=1.20208e-07 $layer=LI1_cond $X=11.9 $Y=0.73
+ $X2=11.985 $Y2=0.815
r206 47 48 123.957 $w=1.68e-07 $l=1.9e-06 $layer=LI1_cond $X=11.9 $Y=0.73 $X2=10
+ $Y2=0.73
r207 45 48 6.81649 $w=1.7e-07 $l=1.20208e-07 $layer=LI1_cond $X=9.915 $Y=0.815
+ $X2=10 $Y2=0.73
r208 45 46 25.4438 $w=1.68e-07 $l=3.9e-07 $layer=LI1_cond $X=9.915 $Y=0.815
+ $X2=9.915 $Y2=1.205
r209 44 65 53.2059 $w=3.3e-07 $l=2.05e-07 $layer=POLY_cond $X=9.78 $Y=1.29
+ $X2=9.78 $Y2=1.495
r210 44 62 15.7375 $w=3.3e-07 $l=9e-08 $layer=POLY_cond $X=9.78 $Y=1.29 $X2=9.78
+ $Y2=1.2
r211 43 44 145.28 $w=1.7e-07 $l=1.7e-07 $layer=licon1_POLY $count=1 $X=9.78
+ $Y=1.29 $X2=9.78 $Y2=1.29
r212 41 43 100.797 $w=1.68e-07 $l=1.545e-06 $layer=LI1_cond $X=8.235 $Y=1.29
+ $X2=9.78 $Y2=1.29
r213 40 46 6.81649 $w=1.7e-07 $l=1.20208e-07 $layer=LI1_cond $X=9.83 $Y=1.29
+ $X2=9.915 $Y2=1.205
r214 40 43 3.26203 $w=1.68e-07 $l=5e-08 $layer=LI1_cond $X=9.83 $Y=1.29 $X2=9.78
+ $Y2=1.29
r215 39 41 6.81649 $w=1.7e-07 $l=1.20208e-07 $layer=LI1_cond $X=8.15 $Y=1.205
+ $X2=8.235 $Y2=1.29
r216 38 39 18.2674 $w=1.68e-07 $l=2.8e-07 $layer=LI1_cond $X=8.15 $Y=0.925
+ $X2=8.15 $Y2=1.205
r217 34 53 21.0075 $w=1.68e-07 $l=3.22e-07 $layer=LI1_cond $X=7.412 $Y=1.69
+ $X2=7.09 $Y2=1.69
r218 34 36 16.7812 $w=2.83e-07 $l=4.15e-07 $layer=LI1_cond $X=7.412 $Y=1.775
+ $X2=7.412 $Y2=2.19
r219 31 52 2.21775 $w=6e-07 $l=8.5e-08 $layer=LI1_cond $X=7.175 $Y=0.625
+ $X2=7.09 $Y2=0.625
r220 31 33 9.96732 $w=5.98e-07 $l=5e-07 $layer=LI1_cond $X=7.175 $Y=0.625
+ $X2=7.675 $Y2=0.625
r221 30 38 10.0451 $w=6e-07 $l=3.39853e-07 $layer=LI1_cond $X=8.065 $Y=0.625
+ $X2=8.15 $Y2=0.925
r222 30 33 7.77451 $w=5.98e-07 $l=3.9e-07 $layer=LI1_cond $X=8.065 $Y=0.625
+ $X2=7.675 $Y2=0.625
r223 29 53 0.716491 $w=1.7e-07 $l=8.5e-08 $layer=LI1_cond $X=7.09 $Y=1.605
+ $X2=7.09 $Y2=1.69
r224 28 52 7.82736 $w=1.7e-07 $l=3e-07 $layer=LI1_cond $X=7.09 $Y=0.925 $X2=7.09
+ $Y2=0.625
r225 28 29 44.3636 $w=1.68e-07 $l=6.8e-07 $layer=LI1_cond $X=7.09 $Y=0.925
+ $X2=7.09 $Y2=1.605
r226 26 60 52.0941 $w=3.6e-07 $l=3.25e-07 $layer=POLY_cond $X=12.39 $Y=1.405
+ $X2=12.39 $Y2=1.08
r227 26 27 48.987 $w=3.6e-07 $l=1.8e-07 $layer=POLY_cond $X=12.39 $Y=1.405
+ $X2=12.39 $Y2=1.585
r228 24 60 7.21303 $w=3.6e-07 $l=4.5e-08 $layer=POLY_cond $X=12.39 $Y=1.035
+ $X2=12.39 $Y2=1.08
r229 24 25 48.987 $w=3.6e-07 $l=1.8e-07 $layer=POLY_cond $X=12.39 $Y=1.035
+ $X2=12.39 $Y2=0.855
r230 22 27 292.277 $w=1.5e-07 $l=5.7e-07 $layer=POLY_cond $X=12.495 $Y=2.155
+ $X2=12.495 $Y2=1.585
r231 18 25 210.234 $w=1.5e-07 $l=4.1e-07 $layer=POLY_cond $X=12.495 $Y=0.445
+ $X2=12.495 $Y2=0.855
r232 14 65 710.181 $w=1.5e-07 $l=1.385e-06 $layer=POLY_cond $X=9.69 $Y=2.88
+ $X2=9.69 $Y2=1.495
r233 10 62 21.2229 $w=1.5e-07 $l=1.65e-07 $layer=POLY_cond $X=9.615 $Y=1.2
+ $X2=9.78 $Y2=1.2
r234 10 11 107.681 $w=1.5e-07 $l=2.1e-07 $layer=POLY_cond $X=9.615 $Y=1.2
+ $X2=9.405 $Y2=1.2
r235 7 11 26.9307 $w=1.5e-07 $l=1.06066e-07 $layer=POLY_cond $X=9.33 $Y=1.125
+ $X2=9.405 $Y2=1.2
r236 7 9 102.827 $w=1.5e-07 $l=3.2e-07 $layer=POLY_cond $X=9.33 $Y=1.125
+ $X2=9.33 $Y2=0.805
r237 2 36 600 $w=1.7e-07 $l=3.74333e-07 $layer=licon1_PDIFF $count=1 $X=7.225
+ $Y=1.895 $X2=7.405 $Y2=2.19
r238 1 52 91 $w=1.7e-07 $l=2.03286e-07 $layer=licon1_NDIFF $count=2 $X=7.03
+ $Y=0.345 $X2=7.17 $Y2=0.49
r239 1 33 182 $w=1.7e-07 $l=8.26862e-07 $layer=licon1_NDIFF $count=1 $X=7.03
+ $Y=0.345 $X2=7.675 $Y2=0.76
.ends

.subckt PM_SKY130_FD_SC_LP__SDFRTP_2%A_1635_21# 1 2 10 13 15 16 17 18 20 21 23
+ 29 32 33 35 38 45 47
c117 45 0 9.68445e-20 $X=8.61 $Y=2.11
c118 33 0 2.88588e-20 $X=9.66 $Y=0.365
c119 18 0 3.02826e-19 $X=8.325 $Y=1.17
r120 42 45 17.2143 $w=2.52e-07 $l=9e-08 $layer=POLY_cond $X=8.7 $Y=2.11 $X2=8.61
+ $Y2=2.11
r121 41 42 145.28 $w=1.7e-07 $l=1.7e-07 $layer=licon1_POLY $count=1 $X=8.7
+ $Y=2.11 $X2=8.7 $Y2=2.11
r122 38 41 4.01609 $w=3.28e-07 $l=1.15e-07 $layer=LI1_cond $X=8.7 $Y=1.995
+ $X2=8.7 $Y2=2.11
r123 36 47 29.7264 $w=3.3e-07 $l=1.7e-07 $layer=POLY_cond $X=9.945 $Y=0.35
+ $X2=9.945 $Y2=0.18
r124 35 36 145.28 $w=1.7e-07 $l=1.7e-07 $layer=licon1_POLY $count=1 $X=9.945
+ $Y=0.35 $X2=9.945 $Y2=0.35
r125 33 35 14.9294 $w=2.18e-07 $l=2.85e-07 $layer=LI1_cond $X=9.66 $Y=0.365
+ $X2=9.945 $Y2=0.365
r126 31 32 51.2139 $w=1.68e-07 $l=7.85e-07 $layer=LI1_cond $X=9.67 $Y=2.08
+ $X2=9.67 $Y2=2.865
r127 27 33 6.94494 $w=2.2e-07 $l=1.87083e-07 $layer=LI1_cond $X=9.52 $Y=0.475
+ $X2=9.66 $Y2=0.365
r128 27 29 13.5824 $w=2.78e-07 $l=3.3e-07 $layer=LI1_cond $X=9.52 $Y=0.475
+ $X2=9.52 $Y2=0.805
r129 23 32 6.91519 $w=2.1e-07 $l=1.41244e-07 $layer=LI1_cond $X=9.585 $Y=2.97
+ $X2=9.67 $Y2=2.865
r130 23 25 5.80952 $w=2.08e-07 $l=1.1e-07 $layer=LI1_cond $X=9.585 $Y=2.97
+ $X2=9.475 $Y2=2.97