* File: sky130_fd_sc_lp__bufinv_16.pex.spice
* Created: Wed Sep  2 09:35:42 2020
* Program "Calibre xRC"
* Version "v2018.4_34.26"
* Nominal Temperature: 27C
* Circuit Temperature: 27C
* 
.subckt PM_SKY130_FD_SC_LP__BUFINV_16%A 3 7 11 15 19 23 25 26 27 31 43 44
c60 43 0 9.89959e-20 $X=1.405 $Y=1.51
r61 42 44 19.2347 $w=3.3e-07 $l=1.1e-07 $layer=POLY_cond $X=1.405 $Y=1.51
+ $X2=1.515 $Y2=1.51
r62 42 43 145.28 $w=1.7e-07 $l=1.7e-07 $layer=licon1_POLY $count=1 $X=1.405
+ $Y=1.51 $X2=1.405 $Y2=1.51
r63 40 42 55.9556 $w=3.3e-07 $l=3.2e-07 $layer=POLY_cond $X=1.085 $Y=1.51
+ $X2=1.405 $Y2=1.51
r64 38 40 3.49723 $w=3.3e-07 $l=2e-08 $layer=POLY_cond $X=1.065 $Y=1.51
+ $X2=1.085 $Y2=1.51
r65 38 39 72.64 $w=1.7e-07 $l=3.4e-07 $layer=licon1_POLY $count=2 $X=1.065
+ $Y=1.51 $X2=1.065 $Y2=1.51
r66 36 38 71.6931 $w=3.3e-07 $l=4.1e-07 $layer=POLY_cond $X=0.655 $Y=1.51
+ $X2=1.065 $Y2=1.51
r67 33 34 145.28 $w=1.7e-07 $l=1.7e-07 $layer=licon1_POLY $count=1 $X=0.385
+ $Y=1.51 $X2=0.385 $Y2=1.51
r68 31 36 13.1146 $w=3.3e-07 $l=7.5e-08 $layer=POLY_cond $X=0.58 $Y=1.51
+ $X2=0.655 $Y2=1.51
r69 31 33 34.0979 $w=3.3e-07 $l=1.95e-07 $layer=POLY_cond $X=0.58 $Y=1.51
+ $X2=0.385 $Y2=1.51
r70 27 43 6.84785 $w=3.43e-07 $l=2.05e-07 $layer=LI1_cond $X=1.2 $Y=1.587
+ $X2=1.405 $Y2=1.587
r71 27 39 4.50956 $w=3.43e-07 $l=1.35e-07 $layer=LI1_cond $X=1.2 $Y=1.587
+ $X2=1.065 $Y2=1.587
r72 26 39 11.5244 $w=3.43e-07 $l=3.45e-07 $layer=LI1_cond $X=0.72 $Y=1.587
+ $X2=1.065 $Y2=1.587
r73 26 34 11.1904 $w=3.43e-07 $l=3.35e-07 $layer=LI1_cond $X=0.72 $Y=1.587
+ $X2=0.385 $Y2=1.587
r74 25 34 4.8436 $w=3.43e-07 $l=1.45e-07 $layer=LI1_cond $X=0.24 $Y=1.587
+ $X2=0.385 $Y2=1.587
r75 21 44 21.2229 $w=1.5e-07 $l=1.65e-07 $layer=POLY_cond $X=1.515 $Y=1.675
+ $X2=1.515 $Y2=1.51
r76 21 23 405.085 $w=1.5e-07 $l=7.9e-07 $layer=POLY_cond $X=1.515 $Y=1.675
+ $X2=1.515 $Y2=2.465
r77 17 44 21.2229 $w=1.5e-07 $l=1.65e-07 $layer=POLY_cond $X=1.515 $Y=1.345
+ $X2=1.515 $Y2=1.51
r78 17 19 348.681 $w=1.5e-07 $l=6.8e-07 $layer=POLY_cond $X=1.515 $Y=1.345
+ $X2=1.515 $Y2=0.665
r79 13 40 21.2229 $w=1.5e-07 $l=1.65e-07 $layer=POLY_cond $X=1.085 $Y=1.675
+ $X2=1.085 $Y2=1.51
r80 13 15 405.085 $w=1.5e-07 $l=7.9e-07 $layer=POLY_cond $X=1.085 $Y=1.675
+ $X2=1.085 $Y2=2.465
r81 9 40 21.2229 $w=1.5e-07 $l=1.65e-07 $layer=POLY_cond $X=1.085 $Y=1.345
+ $X2=1.085 $Y2=1.51
r82 9 11 348.681 $w=1.5e-07 $l=6.8e-07 $layer=POLY_cond $X=1.085 $Y=1.345
+ $X2=1.085 $Y2=0.665
r83 5 36 21.2229 $w=1.5e-07 $l=1.65e-07 $layer=POLY_cond $X=0.655 $Y=1.675
+ $X2=0.655 $Y2=1.51
r84 5 7 405.085 $w=1.5e-07 $l=7.9e-07 $layer=POLY_cond $X=0.655 $Y=1.675
+ $X2=0.655 $Y2=2.465
r85 1 36 21.2229 $w=1.5e-07 $l=1.65e-07 $layer=POLY_cond $X=0.655 $Y=1.345
+ $X2=0.655 $Y2=1.51
r86 1 3 348.681 $w=1.5e-07 $l=6.8e-07 $layer=POLY_cond $X=0.655 $Y=1.345
+ $X2=0.655 $Y2=0.665
.ends

.subckt PM_SKY130_FD_SC_LP__BUFINV_16%A_63_49# 1 2 3 4 15 19 23 27 31 35 39 43
+ 47 51 55 59 63 65 67 69 70 71 75 79 81 83 86 88 94 99 101 102 111
c158 94 0 1.68532e-19 $X=4.005 $Y=1.49
c159 19 0 9.89959e-20 $X=1.99 $Y=2.465
r160 108 109 75.1904 $w=3.3e-07 $l=4.3e-07 $layer=POLY_cond $X=3.28 $Y=1.49
+ $X2=3.71 $Y2=1.49
r161 107 108 75.1904 $w=3.3e-07 $l=4.3e-07 $layer=POLY_cond $X=2.85 $Y=1.49
+ $X2=3.28 $Y2=1.49
r162 106 107 75.1904 $w=3.3e-07 $l=4.3e-07 $layer=POLY_cond $X=2.42 $Y=1.49
+ $X2=2.85 $Y2=1.49
r163 105 106 75.1904 $w=3.3e-07 $l=4.3e-07 $layer=POLY_cond $X=1.99 $Y=1.49
+ $X2=2.42 $Y2=1.49
r164 95 111 23.6063 $w=3.3e-07 $l=1.35e-07 $layer=POLY_cond $X=4.005 $Y=1.49
+ $X2=4.14 $Y2=1.49
r165 95 109 51.5841 $w=3.3e-07 $l=2.95e-07 $layer=POLY_cond $X=4.005 $Y=1.49
+ $X2=3.71 $Y2=1.49
r166 94 95 41.5086 $w=1.7e-07 $l=5.95e-07 $layer=licon1_POLY $count=3 $X=4.005
+ $Y=1.49 $X2=4.005 $Y2=1.49
r167 92 105 4.37153 $w=3.3e-07 $l=2.5e-08 $layer=POLY_cond $X=1.965 $Y=1.49
+ $X2=1.99 $Y2=1.49
r168 91 94 119.081 $w=1.88e-07 $l=2.04e-06 $layer=LI1_cond $X=1.965 $Y=1.49
+ $X2=4.005 $Y2=1.49
r169 91 92 41.5086 $w=1.7e-07 $l=5.95e-07 $layer=licon1_POLY $count=3 $X=1.965
+ $Y=1.49 $X2=1.965 $Y2=1.49
r170 89 102 0.945268 $w=1.9e-07 $l=8.5e-08 $layer=LI1_cond $X=1.92 $Y=1.49
+ $X2=1.835 $Y2=1.49
r171 89 91 2.62679 $w=1.88e-07 $l=4.5e-08 $layer=LI1_cond $X=1.92 $Y=1.49
+ $X2=1.965 $Y2=1.49
r172 87 102 5.66127 $w=1.7e-07 $l=9.5e-08 $layer=LI1_cond $X=1.835 $Y=1.585
+ $X2=1.835 $Y2=1.49
r173 87 88 22.508 $w=1.68e-07 $l=3.45e-07 $layer=LI1_cond $X=1.835 $Y=1.585
+ $X2=1.835 $Y2=1.93
r174 86 102 5.66127 $w=1.7e-07 $l=9.5e-08 $layer=LI1_cond $X=1.835 $Y=1.395
+ $X2=1.835 $Y2=1.49
r175 85 86 9.7861 $w=1.68e-07 $l=1.5e-07 $layer=LI1_cond $X=1.835 $Y=1.245
+ $X2=1.835 $Y2=1.395
r176 84 101 7.24004 $w=1.7e-07 $l=1.3e-07 $layer=LI1_cond $X=1.43 $Y=2.015
+ $X2=1.3 $Y2=2.015
r177 83 88 6.81649 $w=1.7e-07 $l=1.20208e-07 $layer=LI1_cond $X=1.75 $Y=2.015
+ $X2=1.835 $Y2=1.93
r178 83 84 20.877 $w=1.68e-07 $l=3.2e-07 $layer=LI1_cond $X=1.75 $Y=2.015
+ $X2=1.43 $Y2=2.015
r179 82 99 7.24004 $w=1.7e-07 $l=1.3e-07 $layer=LI1_cond $X=1.43 $Y=1.16 $X2=1.3
+ $Y2=1.16
r180 81 85 6.81649 $w=1.7e-07 $l=1.20208e-07 $layer=LI1_cond $X=1.75 $Y=1.16
+ $X2=1.835 $Y2=1.245
r181 81 82 20.877 $w=1.68e-07 $l=3.2e-07 $layer=LI1_cond $X=1.75 $Y=1.16
+ $X2=1.43 $Y2=1.16
r182 77 101 0.132371 $w=2.6e-07 $l=8.5e-08 $layer=LI1_cond $X=1.3 $Y=2.1 $X2=1.3
+ $Y2=2.015
r183 77 79 33.6868 $w=2.58e-07 $l=7.6e-07 $layer=LI1_cond $X=1.3 $Y=2.1 $X2=1.3
+ $Y2=2.86
r184 73 99 0.132371 $w=2.6e-07 $l=8.5e-08 $layer=LI1_cond $X=1.3 $Y=1.075
+ $X2=1.3 $Y2=1.16
r185 73 75 26.3732 $w=2.58e-07 $l=5.95e-07 $layer=LI1_cond $X=1.3 $Y=1.075
+ $X2=1.3 $Y2=0.48
r186 72 98 4.74967 $w=1.7e-07 $l=1.48e-07 $layer=LI1_cond $X=0.57 $Y=2.015
+ $X2=0.422 $Y2=2.015
r187 71 101 7.24004 $w=1.7e-07 $l=1.3e-07 $layer=LI1_cond $X=1.17 $Y=2.015
+ $X2=1.3 $Y2=2.015
r188 71 72 39.1444 $w=1.68e-07 $l=6e-07 $layer=LI1_cond $X=1.17 $Y=2.015
+ $X2=0.57 $Y2=2.015
r189 69 99 7.24004 $w=1.7e-07 $l=1.3e-07 $layer=LI1_cond $X=1.17 $Y=1.16 $X2=1.3
+ $Y2=1.16
r190 69 70 39.1444 $w=1.68e-07 $l=6e-07 $layer=LI1_cond $X=1.17 $Y=1.16 $X2=0.57
+ $Y2=1.16
r191 65 98 2.72785 $w=2.95e-07 $l=8.5e-08 $layer=LI1_cond $X=0.422 $Y=2.1
+ $X2=0.422 $Y2=2.015
r192 65 67 29.6901 $w=2.93e-07 $l=7.6e-07 $layer=LI1_cond $X=0.422 $Y=2.1
+ $X2=0.422 $Y2=2.86
r193 61 70 7.47753 $w=1.7e-07 $l=1.85699e-07 $layer=LI1_cond $X=0.422 $Y=1.075
+ $X2=0.57 $Y2=1.16
r194 61 63 23.2442 $w=2.93e-07 $l=5.95e-07 $layer=LI1_cond $X=0.422 $Y=1.075
+ $X2=0.422 $Y2=0.48
r195 57 111 21.2229 $w=1.5e-07 $l=1.65e-07 $layer=POLY_cond $X=4.14 $Y=1.655
+ $X2=4.14 $Y2=1.49
r196 57 59 415.34 $w=1.5e-07 $l=8.1e-07 $layer=POLY_cond $X=4.14 $Y=1.655
+ $X2=4.14 $Y2=2.465
r197 53 111 21.2229 $w=1.5e-07 $l=1.65e-07 $layer=POLY_cond $X=4.14 $Y=1.325
+ $X2=4.14 $Y2=1.49
r198 53 55 338.426 $w=1.5e-07 $l=6.6e-07 $layer=POLY_cond $X=4.14 $Y=1.325
+ $X2=4.14 $Y2=0.665
r199 49 109 21.2229 $w=1.5e-07 $l=1.65e-07 $layer=POLY_cond $X=3.71 $Y=1.655
+ $X2=3.71 $Y2=1.49
r200 49 51 415.34 $w=1.5e-07 $l=8.1e-07 $layer=POLY_cond $X=3.71 $Y=1.655
+ $X2=3.71 $Y2=2.465
r201 45 109 21.2229 $w=1.5e-07 $l=1.65e-07 $layer=POLY_cond $X=3.71 $Y=1.325
+ $X2=3.71 $Y2=1.49
r202 45 47 338.426 $w=1.5e-07 $l=6.6e-07 $layer=POLY_cond $X=3.71 $Y=1.325
+ $X2=3.71 $Y2=0.665
r203 41 108 21.2229 $w=1.5e-07 $l=1.65e-07 $layer=POLY_cond $X=3.28 $Y=1.655
+ $X2=3.28 $Y2=1.49
r204 41 43 415.34 $w=1.5e-07 $l=8.1e-07 $layer=POLY_cond $X=3.28 $Y=1.655
+ $X2=3.28 $Y2=2.465
r205 37 108 21.2229 $w=1.5e-07 $l=1.65e-07 $layer=POLY_cond $X=3.28 $Y=1.325
+ $X2=3.28 $Y2=1.49
r206 37 39 338.426 $w=1.5e-07 $l=6.6e-07 $layer=POLY_cond $X=3.28 $Y=1.325
+ $X2=3.28 $Y2=0.665
r207 33 107 21.2229 $w=1.5e-07 $l=1.65e-07 $layer=POLY_cond $X=2.85 $Y=1.655
+ $X2=2.85 $Y2=1.49
r208 33 35 415.34 $w=1.5e-07 $l=8.1e-07 $layer=POLY_cond $X=2.85 $Y=1.655
+ $X2=2.85 $Y2=2.465
r209 29 107 21.2229 $w=1.5e-07 $l=1.65e-07 $layer=POLY_cond $X=2.85 $Y=1.325
+ $X2=2.85 $Y2=1.49
r210 29 31 338.426 $w=1.5e-07 $l=6.6e-07 $layer=POLY_cond $X=2.85 $Y=1.325
+ $X2=2.85 $Y2=0.665
r211 25 106 21.2229 $w=1.5e-07 $l=1.65e-07 $layer=POLY_cond $X=2.42 $Y=1.655
+ $X2=2.42 $Y2=1.49
r212 25 27 415.34 $w=1.5e-07 $l=8.1e-07 $layer=POLY_cond $X=2.42 $Y=1.655
+ $X2=2.42 $Y2=2.465
r213 21 106 21.2229 $w=1.5e-07 $l=1.65e-07 $layer=POLY_cond $X=2.42 $Y=1.325
+ $X2=2.42 $Y2=1.49
r214 21 23 338.426 $w=1.5e-07 $l=6.6e-07 $layer=POLY_cond $X=2.42 $Y=1.325
+ $X2=2.42 $Y2=0.665
r215 17 105 21.2229 $w=1.5e-07 $l=1.65e-07 $layer=POLY_cond $X=1.99 $Y=1.655
+ $X2=1.99 $Y2=1.49
r216 17 19 415.34 $w=1.5e-07 $l=8.1e-07 $layer=POLY_cond $X=1.99 $Y=1.655
+ $X2=1.99 $Y2=2.465
r217 13 105 21.2229 $w=1.5e-07 $l=1.65e-07 $layer=POLY_cond $X=1.99 $Y=1.325
+ $X2=1.99 $Y2=1.49
r218 13 15 338.426 $w=1.5e-07 $l=6.6e-07 $layer=POLY_cond $X=1.99 $Y=1.325
+ $X2=1.99 $Y2=0.665
r219 4 101 400 $w=1.7e-07 $l=3.2249e-07 $layer=licon1_PDIFF $count=1 $X=1.16
+ $Y=1.835 $X2=1.3 $Y2=2.095
r220 4 79 400 $w=1.7e-07 $l=1.09276e-06 $layer=licon1_PDIFF $count=1 $X=1.16
+ $Y=1.835 $X2=1.3 $Y2=2.86
r221 3 98 400 $w=1.7e-07 $l=3.16386e-07 $layer=licon1_PDIFF $count=1 $X=0.315
+ $Y=1.835 $X2=0.44 $Y2=2.095
r222 3 67 400 $w=1.7e-07 $l=1.0857e-06 $layer=licon1_PDIFF $count=1 $X=0.315
+ $Y=1.835 $X2=0.44 $Y2=2.86
r223 2 75 91 $w=1.7e-07 $l=2.96859e-07 $layer=licon1_NDIFF $count=2 $X=1.16
+ $Y=0.245 $X2=1.3 $Y2=0.48
r224 1 63 91 $w=1.7e-07 $l=2.90861e-07 $layer=licon1_NDIFF $count=2 $X=0.315
+ $Y=0.245 $X2=0.44 $Y2=0.48
.ends

.subckt PM_SKY130_FD_SC_LP__BUFINV_16%A_413_49# 1 2 3 4 5 6 21 25 29 33 37 41 45
+ 49 53 57 61 65 69 73 77 81 85 89 93 97 101 105 109 113 117 121 125 129 133 137
+ 141 145 149 153 157 158 159 160 163 167 171 173 177 181 185 187 189 190 191
+ 192 197 218 226 231 236 241 246 251 256 258
c366 258 0 1.68532e-19 $X=11.02 $Y=1.51
c367 187 0 1.57775e-19 $X=4.34 $Y=1.84
r368 257 258 75.1904 $w=3.3e-07 $l=4.3e-07 $layer=POLY_cond $X=10.59 $Y=1.51
+ $X2=11.02 $Y2=1.51
r369 255 257 37.5952 $w=3.3e-07 $l=2.15e-07 $layer=POLY_cond $X=10.375 $Y=1.51
+ $X2=10.59 $Y2=1.51
r370 255 256 145.28 $w=1.7e-07 $l=1.7e-07 $layer=licon1_POLY $count=1 $X=10.375
+ $Y=1.51 $X2=10.375 $Y2=1.51
r371 253 255 37.5952 $w=3.3e-07 $l=2.15e-07 $layer=POLY_cond $X=10.16 $Y=1.51
+ $X2=10.375 $Y2=1.51
r372 252 253 75.1904 $w=3.3e-07 $l=4.3e-07 $layer=POLY_cond $X=9.73 $Y=1.51
+ $X2=10.16 $Y2=1.51
r373 250 252 37.5952 $w=3.3e-07 $l=2.15e-07 $layer=POLY_cond $X=9.515 $Y=1.51
+ $X2=9.73 $Y2=1.51
r374 250 251 145.28 $w=1.7e-07 $l=1.7e-07 $layer=licon1_POLY $count=1 $X=9.515
+ $Y=1.51 $X2=9.515 $Y2=1.51
r375 248 250 37.5952 $w=3.3e-07 $l=2.15e-07 $layer=POLY_cond $X=9.3 $Y=1.51
+ $X2=9.515 $Y2=1.51
r376 247 248 75.1904 $w=3.3e-07 $l=4.3e-07 $layer=POLY_cond $X=8.87 $Y=1.51
+ $X2=9.3 $Y2=1.51
r377 245 247 37.5952 $w=3.3e-07 $l=2.15e-07 $layer=POLY_cond $X=8.655 $Y=1.51
+ $X2=8.87 $Y2=1.51
r378 245 246 145.28 $w=1.7e-07 $l=1.7e-07 $layer=licon1_POLY $count=1 $X=8.655
+ $Y=1.51 $X2=8.655 $Y2=1.51
r379 243 245 37.5952 $w=3.3e-07 $l=2.15e-07 $layer=POLY_cond $X=8.44 $Y=1.51
+ $X2=8.655 $Y2=1.51
r380 242 243 75.1904 $w=3.3e-07 $l=4.3e-07 $layer=POLY_cond $X=8.01 $Y=1.51
+ $X2=8.44 $Y2=1.51
r381 240 242 37.5952 $w=3.3e-07 $l=2.15e-07 $layer=POLY_cond $X=7.795 $Y=1.51
+ $X2=8.01 $Y2=1.51
r382 240 241 145.28 $w=1.7e-07 $l=1.7e-07 $layer=licon1_POLY $count=1 $X=7.795
+ $Y=1.51 $X2=7.795 $Y2=1.51
r383 238 240 37.5952 $w=3.3e-07 $l=2.15e-07 $layer=POLY_cond $X=7.58 $Y=1.51
+ $X2=7.795 $Y2=1.51
r384 237 238 75.1904 $w=3.3e-07 $l=4.3e-07 $layer=POLY_cond $X=7.15 $Y=1.51
+ $X2=7.58 $Y2=1.51
r385 235 237 37.5952 $w=3.3e-07 $l=2.15e-07 $layer=POLY_cond $X=6.935 $Y=1.51
+ $X2=7.15 $Y2=1.51
r386 235 236 145.28 $w=1.7e-07 $l=1.7e-07 $layer=licon1_POLY $count=1 $X=6.935
+ $Y=1.51 $X2=6.935 $Y2=1.51
r387 233 235 37.5952 $w=3.3e-07 $l=2.15e-07 $layer=POLY_cond $X=6.72 $Y=1.51
+ $X2=6.935 $Y2=1.51
r388 232 233 75.1904 $w=3.3e-07 $l=4.3e-07 $layer=POLY_cond $X=6.29 $Y=1.51
+ $X2=6.72 $Y2=1.51
r389 230 232 37.5952 $w=3.3e-07 $l=2.15e-07 $layer=POLY_cond $X=6.075 $Y=1.51
+ $X2=6.29 $Y2=1.51
r390 230 231 145.28 $w=1.7e-07 $l=1.7e-07 $layer=licon1_POLY $count=1 $X=6.075
+ $Y=1.51 $X2=6.075 $Y2=1.51
r391 228 230 37.5952 $w=3.3e-07 $l=2.15e-07 $layer=POLY_cond $X=5.86 $Y=1.51
+ $X2=6.075 $Y2=1.51
r392 227 228 75.1904 $w=3.3e-07 $l=4.3e-07 $layer=POLY_cond $X=5.43 $Y=1.51
+ $X2=5.86 $Y2=1.51
r393 225 227 37.5952 $w=3.3e-07 $l=2.15e-07 $layer=POLY_cond $X=5.215 $Y=1.51
+ $X2=5.43 $Y2=1.51
r394 225 226 145.28 $w=1.7e-07 $l=1.7e-07 $layer=licon1_POLY $count=1 $X=5.215
+ $Y=1.51 $X2=5.215 $Y2=1.51
r395 223 225 37.5952 $w=3.3e-07 $l=2.15e-07 $layer=POLY_cond $X=5 $Y=1.51
+ $X2=5.215 $Y2=1.51
r396 221 223 75.1904 $w=3.3e-07 $l=4.3e-07 $layer=POLY_cond $X=4.57 $Y=1.51
+ $X2=5 $Y2=1.51
r397 218 256 9.3 $w=1.7e-07 $l=1.7e-07 $layer=mcon $count=1 $X=10.375 $Y=1.665
+ $X2=10.375 $Y2=1.665
r398 215 218 0.55178 $w=2.3e-07 $l=8.6e-07 $layer=MET1_cond $X=9.515 $Y=1.665
+ $X2=10.375 $Y2=1.665
r399 215 251 9.3 $w=1.7e-07 $l=1.7e-07 $layer=mcon $count=1 $X=9.515 $Y=1.665
+ $X2=9.515 $Y2=1.665
r400 212 215 0.55178 $w=2.3e-07 $l=8.6e-07 $layer=MET1_cond $X=8.655 $Y=1.665
+ $X2=9.515 $Y2=1.665
r401 212 246 9.3 $w=1.7e-07 $l=1.7e-07 $layer=mcon $count=1 $X=8.655 $Y=1.665
+ $X2=8.655 $Y2=1.665
r402 209 212 0.55178 $w=2.3e-07 $l=8.6e-07 $layer=MET1_cond $X=7.795 $Y=1.665
+ $X2=8.655 $Y2=1.665
r403 209 241 9.3 $w=1.7e-07 $l=1.7e-07 $layer=mcon $count=1 $X=7.795 $Y=1.665
+ $X2=7.795 $Y2=1.665
r404 206 209 0.55178 $w=2.3e-07 $l=8.6e-07 $layer=MET1_cond $X=6.935 $Y=1.665
+ $X2=7.795 $Y2=1.665
r405 206 236 9.3 $w=1.7e-07 $l=1.7e-07 $layer=mcon $count=1 $X=6.935 $Y=1.665
+ $X2=6.935 $Y2=1.665
r406 203 206 0.55178 $w=2.3e-07 $l=8.6e-07 $layer=MET1_cond $X=6.075 $Y=1.665
+ $X2=6.935 $Y2=1.665
r407 203 231 9.3 $w=1.7e-07 $l=1.7e-07 $layer=mcon $count=1 $X=6.075 $Y=1.665
+ $X2=6.075 $Y2=1.665
r408 200 203 0.55178 $w=2.3e-07 $l=8.6e-07 $layer=MET1_cond $X=5.215 $Y=1.665
+ $X2=6.075 $Y2=1.665
r409 200 226 9.3 $w=1.7e-07 $l=1.7e-07 $layer=mcon $count=1 $X=5.215 $Y=1.665
+ $X2=5.215 $Y2=1.665
r410 196 200 0.500451 $w=2.3e-07 $l=7.8e-07 $layer=MET1_cond $X=4.435 $Y=1.665
+ $X2=5.215 $Y2=1.665
r411 196 197 9.3 $w=1.7e-07 $l=1.7e-07 $layer=mcon $count=1 $X=4.435 $Y=1.665
+ $X2=4.435 $Y2=1.665
r412 194 197 5.54545 $w=1.78e-07 $l=9e-08 $layer=LI1_cond $X=4.43 $Y=1.755
+ $X2=4.43 $Y2=1.665
r413 193 197 27.1111 $w=1.78e-07 $l=4.4e-07 $layer=LI1_cond $X=4.43 $Y=1.225
+ $X2=4.43 $Y2=1.665
r414 188 192 7.24004 $w=1.7e-07 $l=1.3e-07 $layer=LI1_cond $X=4.055 $Y=1.84
+ $X2=3.925 $Y2=1.84
r415 187 194 6.82373 $w=1.7e-07 $l=1.25499e-07 $layer=LI1_cond $X=4.34 $Y=1.84
+ $X2=4.43 $Y2=1.755
r416 187 188 18.5936 $w=1.68e-07 $l=2.85e-07 $layer=LI1_cond $X=4.34 $Y=1.84
+ $X2=4.055 $Y2=1.84
r417 186 191 7.24004 $w=1.7e-07 $l=1.3e-07 $layer=LI1_cond $X=4.055 $Y=1.14
+ $X2=3.925 $Y2=1.14
r418 185 193 6.82373 $w=1.7e-07 $l=1.25499e-07 $layer=LI1_cond $X=4.34 $Y=1.14
+ $X2=4.43 $Y2=1.225
r419 185 186 18.5936 $w=1.68e-07 $l=2.85e-07 $layer=LI1_cond $X=4.34 $Y=1.14
+ $X2=4.055 $Y2=1.14
r420 181 183 33.9084 $w=2.58e-07 $l=7.65e-07 $layer=LI1_cond $X=3.925 $Y=2.095
+ $X2=3.925 $Y2=2.86
r421 179 192 0.132371 $w=2.6e-07 $l=8.5e-08 $layer=LI1_cond $X=3.925 $Y=1.925
+ $X2=3.925 $Y2=1.84
r422 179 181 7.5352 $w=2.58e-07 $l=1.7e-07 $layer=LI1_cond $X=3.925 $Y=1.925
+ $X2=3.925 $Y2=2.095
r423 175 191 0.132371 $w=2.6e-07 $l=8.5e-08 $layer=LI1_cond $X=3.925 $Y=1.055
+ $X2=3.925 $Y2=1.14
r424 175 177 25.4867 $w=2.58e-07 $l=5.75e-07 $layer=LI1_cond $X=3.925 $Y=1.055
+ $X2=3.925 $Y2=0.48
r425 174 190 7.24004 $w=1.7e-07 $l=1.3e-07 $layer=LI1_cond $X=3.195 $Y=1.84
+ $X2=3.065 $Y2=1.84
r426 173 192 7.24004 $w=1.7e-07 $l=1.3e-07 $layer=LI1_cond $X=3.795 $Y=1.84
+ $X2=3.925 $Y2=1.84
r427 173 174 39.1444 $w=1.68e-07 $l=6e-07 $layer=LI1_cond $X=3.795 $Y=1.84
+ $X2=3.195 $Y2=1.84
r428 172 189 7.24004 $w=1.7e-07 $l=1.3e-07 $layer=LI1_cond $X=3.195 $Y=1.14
+ $X2=3.065 $Y2=1.14
r429 171 191 7.24004 $w=1.7e-07 $l=1.3e-07 $layer=LI1_cond $X=3.795 $Y=1.14
+ $X2=3.925 $Y2=1.14
r430 171 172 39.1444 $w=1.68e-07 $l=6e-07 $layer=LI1_cond $X=3.795 $Y=1.14
+ $X2=3.195 $Y2=1.14
r431 167 169 33.9084 $w=2.58e-07 $l=7.65e-07 $layer=LI1_cond $X=3.065 $Y=2.095
+ $X2=3.065 $Y2=2.86
r432 165 190 0.132371 $w=2.6e-07 $l=8.5e-08 $layer=LI1_cond $X=3.065 $Y=1.925
+ $X2=3.065 $Y2=1.84
r433 165 167 7.5352 $w=2.58e-07 $l=1.7e-07 $layer=LI1_cond $X=3.065 $Y=1.925
+ $X2=3.065 $Y2=2.095
r434 161 189 0.132371 $w=2.6e-07 $l=8.5e-08 $layer=LI1_cond $X=3.065 $Y=1.055
+ $X2=3.065 $Y2=1.14
r435 161 163 25.4867 $w=2.58e-07 $l=5.75e-07 $layer=LI1_cond $X=3.065 $Y=1.055
+ $X2=3.065 $Y2=0.48
r436 159 190 7.24004 $w=1.7e-07 $l=1.3e-07 $layer=LI1_cond $X=2.935 $Y=1.84
+ $X2=3.065 $Y2=1.84
r437 159 160 39.1444 $w=1.68e-07 $l=6e-07 $layer=LI1_cond $X=2.935 $Y=1.84
+ $X2=2.335 $Y2=1.84
r438 157 189 7.24004 $w=1.7e-07 $l=1.3e-07 $layer=LI1_cond $X=2.935 $Y=1.14
+ $X2=3.065 $Y2=1.14
r439 157 158 39.1444 $w=1.68e-07 $l=6e-07 $layer=LI1_cond $X=2.935 $Y=1.14
+ $X2=2.335 $Y2=1.14
r440 153 155 35.9844 $w=2.43e-07 $l=7.65e-07 $layer=LI1_cond $X=2.212 $Y=2.095
+ $X2=2.212 $Y2=2.86
r441 151 160 7.11011 $w=1.7e-07 $l=1.5995e-07 $layer=LI1_cond $X=2.212 $Y=1.925
+ $X2=2.335 $Y2=1.84
r442 151 153 7.99654 $w=2.43e-07 $l=1.7e-07 $layer=LI1_cond $X=2.212 $Y=1.925
+ $X2=2.212 $Y2=2.095
r443 147 158 7.11011 $w=1.7e-07 $l=1.5995e-07 $layer=LI1_cond $X=2.212 $Y=1.055
+ $X2=2.335 $Y2=1.14
r444 147 149 27.0471 $w=2.43e-07 $l=5.75e-07 $layer=LI1_cond $X=2.212 $Y=1.055
+ $X2=2.212 $Y2=0.48
r445 143 258 21.2229 $w=1.5e-07 $l=1.65e-07 $layer=POLY_cond $X=11.02 $Y=1.675
+ $X2=11.02 $Y2=1.51
r446 143 145 405.085 $w=1.5e-07 $l=7.9e-07 $layer=POLY_cond $X=11.02 $Y=1.675
+ $X2=11.02 $Y2=2.465
r447 139 258 21.2229 $w=1.5e-07 $l=1.65e-07 $layer=POLY_cond $X=11.02 $Y=1.345
+ $X2=11.02 $Y2=1.51
r448 139 141 348.681 $w=1.5e-07 $l=6.8e-07 $layer=POLY_cond $X=11.02 $Y=1.345
+ $X2=11.02 $Y2=0.665
r449 135 257 21.2229 $w=1.5e-07 $l=1.65e-07 $layer=POLY_cond $X=10.59 $Y=1.675
+ $X2=10.59 $Y2=1.51
r450 135 137 405.085 $w=1.5e-07 $l=7.9e-07 $layer=POLY_cond $X=10.59 $Y=1.675
+ $X2=10.59 $Y2=2.465
r451 131 257 21.2229 $w=1.5e-07 $l=1.65e-07 $layer=POLY_cond $X=10.59 $Y=1.345
+ $X2=10.59 $Y2=1.51
r452 131 133 348.681 $w=1.5e-07 $l=6.8e-07 $layer=POLY_cond $X=10.59 $Y=1.345
+ $X2=10.59 $Y2=0.665
r453 127 253 21.2229 $w=1.5e-07 $l=1.65e-07 $layer=POLY_cond $X=10.16 $Y=1.675
+ $X2=10.16 $Y2=1.51
r454 127 129 405.085 $w=1.5e-07 $l=7.9e-07 $layer=POLY_cond $X=10.16 $Y=1.675
+ $X2=10.16 $Y2=2.465
r455 123 253 21.2229 $w=1.5e-07 $l=1.65e-07 $layer=POLY_cond $X=10.16 $Y=1.345
+ $X2=10.16 $Y2=1.51
r456 123 125 348.681 $w=1.5e-07 $l=6.8e-07 $layer=POLY_cond $X=10.16 $Y=1.345
+ $X2=10.16 $Y2=0.665
r457 119 252 21.2229 $w=1.5e-07 $l=1.65e-07 $layer=POLY_cond $X=9.73 $Y=1.675
+ $X2=9.73 $Y2=1.51
r458 119 121 405.085 $w=1.5e-07 $l=7.9e-07 $layer=POLY_cond $X=9.73 $Y=1.675
+ $X2=9.73 $Y2=2.465
r459 115 252 21.2229 $w=1.5e-07 $l=1.65e-07 $layer=POLY_cond $X=9.73 $Y=1.345
+ $X2=9.73 $Y2=1.51
r460 115 117 348.681 $w=1.5e-07 $l=6.8e-07 $layer=POLY_cond $X=9.73 $Y=1.345
+ $X2=9.73 $Y2=0.665
r461 111 248 21.2229 $w=1.5e-07 $l=1.65e-07 $layer=POLY_cond $X=9.3 $Y=1.675
+ $X2=9.3 $Y2=1.51
r462 111 113 405.085 $w=1.5e-07 $l=7.9e-07 $layer=POLY_cond $X=9.3 $Y=1.675
+ $X2=9.3 $Y2=2.465
r463 107 248 21.2229 $w=1.5e-07 $l=1.65e-07 $layer=POLY_cond $X=9.3 $Y=1.345
+ $X2=9.3 $Y2=1.51
r464 107 109 348.681 $w=1.5e-07 $l=6.8e-07 $layer=POLY_cond $X=9.3 $Y=1.345
+ $X2=9.3 $Y2=0.665
r465 103 247 21.2229 $w=1.5e-07 $l=1.65e-07 $layer=POLY_cond $X=8.87 $Y=1.675
+ $X2=8.87 $Y2=1.51
r466 103 105 405.085 $w=1.5e-07 $l=7.9e-07 $layer=POLY_cond $X=8.87 $Y=1.675
+ $X2=8.87 $Y2=2.465
r467 99 247 21.2229 $w=1.5e-07 $l=1.65e-07 $layer=POLY_cond $X=8.87 $Y=1.345
+ $X2=8.87 $Y2=1.51
r468 99 101 348.681 $w=1.5e-07 $l=6.8e-07 $layer=POLY_cond $X=8.87 $Y=1.345
+ $X2=8.87 $Y2=0.665
r469 95 243 21.2229 $w=1.5e-07 $l=1.65e-07 $layer=POLY_cond $X=8.44 $Y=1.675
+ $X2=8.44 $Y2=1.51
r470 95 97 405.085 $w=1.5e-07 $l=7.9e-07 $layer=POLY_cond $X=8.44 $Y=1.675
+ $X2=8.44 $Y2=2.465
r471 91 243 21.2229 $w=1.5e-07 $l=1.65e-07 $layer=POLY_cond $X=8.44 $Y=1.345
+ $X2=8.44 $Y2=1.51
r472 91 93 348.681 $w=1.5e-07 $l=6.8e-07 $layer=POLY_cond $X=8.44 $Y=1.345
+ $X2=8.44 $Y2=0.665
r473 87 242 21.2229 $w=1.5e-07 $l=1.65e-07 $layer=POLY_cond $X=8.01 $Y=1.675
+ $X2=8.01 $Y2=1.51
r474 87 89 405.085 $w=1.5e-07 $l=7.9e-07 $layer=POLY_cond $X=8.01 $Y=1.675
+ $X2=8.01 $Y2=2.465
r475 83 242 21.2229 $w=1.5e-07 $l=1.65e-07 $layer=POLY_cond $X=8.01 $Y=1.345
+ $X2=8.01 $Y2=1.51
r476 83 85 348.681 $w=1.5e-07 $l=6.8e-07 $layer=POLY_cond $X=8.01 $Y=1.345
+ $X2=8.01 $Y2=0.665
r477 79 238 21.2229 $w=1.5e-07 $l=1.65e-07 $layer=POLY_cond $X=7.58 $Y=1.675
+ $X2=7.58 $Y2=1.51
r478 79 81 405.085 $w=1.5e-07 $l=7.9e-07 $layer=POLY_cond $X=7.58 $Y=1.675
+ $X2=7.58 $Y2=2.465
r479 75 238 21.2229 $w=1.5e-07 $l=1.65e-07 $layer=POLY_cond $X=7.58 $Y=1.345
+ $X2=7.58 $Y2=1.51
r480 75 77 348.681 $w=1.5e-07 $l=6.8e-07 $layer=POLY_cond $X=7.58 $Y=1.345
+ $X2=7.58 $Y2=0.665
r481 71 237 21.2229 $w=1.5e-07 $l=1.65e-07 $layer=POLY_cond $X=7.15 $Y=1.675
+ $X2=7.15 $Y2=1.51
r482 71 73 405.085 $w=1.5e-07 $l=7.9e-07 $layer=POLY_cond $X=7.15 $Y=1.675
+ $X2=7.15 $Y2=2.465
r483 67 237 21.2229 $w=1.5e-07 $l=1.65e-07 $layer=POLY_cond $X=7.15 $Y=1.345
+ $X2=7.15 $Y2=1.51
r484 67 69 348.681 $w=1.5e-07 $l=6.8e-07 $layer=POLY_cond $X=7.15 $Y=1.345
+ $X2=7.15 $Y2=0.665
r485 63 233 21.2229 $w=1.5e-07 $l=1.65e-07 $layer=POLY_cond $X=6.72 $Y=1.675
+ $X2=6.72 $Y2=1.51
r486 63 65 405.085 $w=1.5e-07 $l=7.9e-07 $layer=POLY_cond $X=6.72 $Y=1.675
+ $X2=6.72 $Y2=2.465
r487 59 233 21.2229 $w=1.5e-07 $l=1.65e-07 $layer=POLY_cond $X=6.72 $Y=1.345
+ $X2=6.72 $Y2=1.51
r488 59 61 348.681 $w=1.5e-07 $l=6.8e-07 $layer=POLY_cond $X=6.72 $Y=1.345
+ $X2=6.72 $Y2=0.665
r489 55 232 21.2229 $w=1.5e-07 $l=1.65e-07 $layer=POLY_cond $X=6.29 $Y=1.675
+ $X2=6.29 $Y2=1.51
r490 55 57 405.085 $w=1.5e-07 $l=7.9e-07 $layer=POLY_cond $X=6.29 $Y=1.675
+ $X2=6.29 $Y2=2.465
r491 51 232 21.2229 $w=1.5e-07 $l=1.65e-07 $layer=POLY_cond $X=6.29 $Y=1.345
+ $X2=6.29 $Y2=1.51
r492 51 53 348.681 $w=1.5e-07 $l=6.8e-07 $layer=POLY_cond $X=6.29 $Y=1.345
+ $X2=6.29 $Y2=0.665
r493 47 228 21.2229 $w=1.5e-07 $l=1.65e-07 $layer=POLY_cond $X=5.86 $Y=1.675
+ $X2=5.86 $Y2=1.51
r494 47 49 405.085 $w=1.5e-07 $l=7.9e-07 $layer=POLY_cond $X=5.86 $Y=1.675
+ $X2=5.86 $Y2=2.465
r495 43 228 21.2229 $w=1.5e-07 $l=1.65e-07 $layer=POLY_cond $X=5.86 $Y=1.345
+ $X2=5.86 $Y2=1.51
r496 43 45 348.681 $w=1.5e-07 $l=6.8e-07 $layer=POLY_cond $X=5.86 $Y=1.345
+ $X2=5.86 $Y2=0.665
r497 39 227 21.2229 $w=1.5e-07 $l=1.65e-07 $layer=POLY_cond $X=5.43 $Y=1.675
+ $X2=5.43 $Y2=1.51
r498 39 41 405.085 $w=1.5e-07 $l=7.9e-07 $layer=POLY_cond $X=5.43 $Y=1.675
+ $X2=5.43 $Y2=2.465
r499 35 227 21.2229 $w=1.5e-07 $l=1.65e-07 $layer=POLY_cond $X=5.43 $Y=1.345
+ $X2=5.43 $Y2=1.51
r500 35 37 348.681 $w=1.5e-07 $l=6.8e-07 $layer=POLY_cond $X=5.43 $Y=1.345
+ $X2=5.43 $Y2=0.665
r501 31 223 21.2229 $w=1.5e-07 $l=1.65e-07 $layer=POLY_cond $X=5 $Y=1.675 $X2=5
+ $Y2=1.51
r502 31 33 405.085 $w=1.5e-07 $l=7.9e-07 $layer=POLY_cond $X=5 $Y=1.675 $X2=5
+ $Y2=2.465
r503 27 223 21.2229 $w=1.5e-07 $l=1.65e-07 $layer=POLY_cond $X=5 $Y=1.345 $X2=5
+ $Y2=1.51
r504 27 29 348.681 $w=1.5e-07 $l=6.8e-07 $layer=POLY_cond $X=5 $Y=1.345 $X2=5
+ $Y2=0.665
r505 23 221 21.2229 $w=1.5e-07 $l=1.65e-07 $layer=POLY_cond $X=4.57 $Y=1.675
+ $X2=4.57 $Y2=1.51
r506 23 25 405.085 $w=1.5e-07 $l=7.9e-07 $layer=POLY_cond $X=4.57 $Y=1.675
+ $X2=4.57 $Y2=2.465
r507 19 221 21.2229 $w=1.5e-07 $l=1.65e-07 $layer=POLY_cond $X=4.57 $Y=1.345
+ $X2=4.57 $Y2=1.51
r508 19 21 348.681 $w=1.5e-07 $l=6.8e-07 $layer=POLY_cond $X=4.57 $Y=1.345
+ $X2=4.57 $Y2=0.665
r509 6 183 400 $w=1.7e-07 $l=1.09276e-06 $layer=licon1_PDIFF $count=1 $X=3.785
+ $Y=1.835 $X2=3.925 $Y2=2.86
r510 6 181 400 $w=1.7e-07 $l=3.2249e-07 $layer=licon1_PDIFF $count=1 $X=3.785
+ $Y=1.835 $X2=3.925 $Y2=2.095
r511 5 169 400 $w=1.7e-07 $l=1.09276e-06 $layer=licon1_PDIFF $count=1 $X=2.925
+ $Y=1.835 $X2=3.065 $Y2=2.86
r512 5 167 400 $w=1.7e-07 $l=3.2249e-07 $layer=licon1_PDIFF $count=1 $X=2.925
+ $Y=1.835 $X2=3.065 $Y2=2.095
r513 4 155 400 $w=1.7e-07 $l=1.09276e-06 $layer=licon1_PDIFF $count=1 $X=2.065
+ $Y=1.835 $X2=2.205 $Y2=2.86
r514 4 153 400 $w=1.7e-07 $l=3.2249e-07 $layer=licon1_PDIFF $count=1 $X=2.065
+ $Y=1.835 $X2=2.205 $Y2=2.095
r515 3 177 91 $w=1.7e-07 $l=2.96859e-07 $layer=licon1_NDIFF $count=2 $X=3.785
+ $Y=0.245 $X2=3.925 $Y2=0.48
r516 2 163 91 $w=1.7e-07 $l=2.96859e-07 $layer=licon1_NDIFF $count=2 $X=2.925
+ $Y=0.245 $X2=3.065 $Y2=0.48
r517 1 149 91 $w=1.7e-07 $l=2.96859e-07 $layer=licon1_NDIFF $count=2 $X=2.065
+ $Y=0.245 $X2=2.205 $Y2=0.48
.ends

.subckt PM_SKY130_FD_SC_LP__BUFINV_16%VPWR 1 2 3 4 5 6 7 8 9 10 11 12 13 42 44
+ 48 52 58 64 70 74 78 84 90 96 102 106 110 114 116 120 121 123 124 126 127 128
+ 129 131 132 134 135 136 137 138 144 159 174 180 183 186 189 192 196
r219 195 196 9.3 $w=1.7e-07 $l=1.7e-07 $layer=mcon $count=1 $X=11.28 $Y=3.33
+ $X2=11.28 $Y2=3.33
r220 192 193 4.65 $w=1.7e-07 $l=3.4e-07 $layer=mcon $count=2 $X=10.32 $Y=3.33
+ $X2=10.32 $Y2=3.33
r221 189 190 9.3 $w=1.7e-07 $l=1.7e-07 $layer=mcon $count=1 $X=6.96 $Y=3.33
+ $X2=6.96 $Y2=3.33
r222 186 187 4.65 $w=1.7e-07 $l=3.4e-07 $layer=mcon $count=2 $X=6 $Y=3.33 $X2=6
+ $Y2=3.33
r223 183 184 9.3 $w=1.7e-07 $l=1.7e-07 $layer=mcon $count=1 $X=2.64 $Y=3.33
+ $X2=2.64 $Y2=3.33
r224 180 181 4.65 $w=1.7e-07 $l=3.4e-07 $layer=mcon $count=2 $X=1.68 $Y=3.33
+ $X2=1.68 $Y2=3.33
r225 178 196 0.133793 $w=4.9e-07 $l=4.8e-07 $layer=MET1_cond $X=10.8 $Y=3.33
+ $X2=11.28 $Y2=3.33
r226 178 193 0.133793 $w=4.9e-07 $l=4.8e-07 $layer=MET1_cond $X=10.8 $Y=3.33
+ $X2=10.32 $Y2=3.33
r227 177 178 9.3 $w=1.7e-07 $l=1.7e-07 $layer=mcon $count=1 $X=10.8 $Y=3.33
+ $X2=10.8 $Y2=3.33
r228 175 192 7.24004 $w=1.7e-07 $l=1.3e-07 $layer=LI1_cond $X=10.505 $Y=3.33
+ $X2=10.375 $Y2=3.33
r229 175 177 19.246 $w=1.68e-07 $l=2.95e-07 $layer=LI1_cond $X=10.505 $Y=3.33
+ $X2=10.8 $Y2=3.33
r230 174 195 4.39729 $w=1.7e-07 $l=2.07e-07 $layer=LI1_cond $X=11.105 $Y=3.33
+ $X2=11.312 $Y2=3.33
r231 174 177 19.8984 $w=1.68e-07 $l=3.05e-07 $layer=LI1_cond $X=11.105 $Y=3.33
+ $X2=10.8 $Y2=3.33
r232 173 193 0.267585 $w=4.9e-07 $l=9.6e-07 $layer=MET1_cond $X=9.36 $Y=3.33
+ $X2=10.32 $Y2=3.33
r233 172 173 4.65 $w=1.7e-07 $l=3.4e-07 $layer=mcon $count=2 $X=9.36 $Y=3.33
+ $X2=9.36 $Y2=3.33
r234 170 173 0.267585 $w=4.9e-07 $l=9.6e-07 $layer=MET1_cond $X=8.4 $Y=3.33
+ $X2=9.36 $Y2=3.33
r235 169 170 4.65 $w=1.7e-07 $l=3.4e-07 $layer=mcon $count=2 $X=8.4 $Y=3.33
+ $X2=8.4 $Y2=3.33
r236 167 170 0.267585 $w=4.9e-07 $l=9.6e-07 $layer=MET1_cond $X=7.44 $Y=3.33
+ $X2=8.4 $Y2=3.33
r237 167 190 0.133793 $w=4.9e-07 $l=4.8e-07 $layer=MET1_cond $X=7.44 $Y=3.33
+ $X2=6.96 $Y2=3.33
r238 166 167 9.3 $w=1.7e-07 $l=1.7e-07 $layer=mcon $count=1 $X=7.44 $Y=3.33
+ $X2=7.44 $Y2=3.33
r239 164 189 7.24004 $w=1.7e-07 $l=1.3e-07 $layer=LI1_cond $X=7.065 $Y=3.33
+ $X2=6.935 $Y2=3.33
r240 164 166 24.4652 $w=1.68e-07 $l=3.75e-07 $layer=LI1_cond $X=7.065 $Y=3.33
+ $X2=7.44 $Y2=3.33
r241 163 190 0.133793 $w=4.9e-07 $l=4.8e-07 $layer=MET1_cond $X=6.48 $Y=3.33
+ $X2=6.96 $Y2=3.33
r242 163 187 0.133793 $w=4.9e-07 $l=4.8e-07 $layer=MET1_cond $X=6.48 $Y=3.33
+ $X2=6 $Y2=3.33
r243 162 163 9.3 $w=1.7e-07 $l=1.7e-07 $layer=mcon $count=1 $X=6.48 $Y=3.33
+ $X2=6.48 $Y2=3.33
r244 160 186 7.24004 $w=1.7e-07 $l=1.3e-07 $layer=LI1_cond $X=6.205 $Y=3.33
+ $X2=6.075 $Y2=3.33
r245 160 162 17.9412 $w=1.68e-07 $l=2.75e-07 $layer=LI1_cond $X=6.205 $Y=3.33
+ $X2=6.48 $Y2=3.33
r246 159 189 7.24004 $w=1.7e-07 $l=1.3e-07 $layer=LI1_cond $X=6.805 $Y=3.33
+ $X2=6.935 $Y2=3.33
r247 159 162 21.2032 $w=1.68e-07 $l=3.25e-07 $layer=LI1_cond $X=6.805 $Y=3.33
+ $X2=6.48 $Y2=3.33
r248 157 158 4.65 $w=1.7e-07 $l=3.4e-07 $layer=mcon $count=2 $X=5.04 $Y=3.33
+ $X2=5.04 $Y2=3.33
r249 155 158 0.267585 $w=4.9e-07 $l=9.6e-07 $layer=MET1_cond $X=4.08 $Y=3.33
+ $X2=5.04 $Y2=3.33
r250 154 155 4.65 $w=1.7e-07 $l=3.4e-07 $layer=mcon $count=2 $X=4.08 $Y=3.33
+ $X2=4.08 $Y2=3.33
r251 152 155 0.267585 $w=4.9e-07 $l=9.6e-07 $layer=MET1_cond $X=3.12 $Y=3.33
+ $X2=4.08 $Y2=3.33
r252 152 184 0.133793 $w=4.9e-07 $l=4.8e-07 $layer=MET1_cond $X=3.12 $Y=3.33
+ $X2=2.64 $Y2=3.33
r253 151 152 9.3 $w=1.7e-07 $l=1.7e-07 $layer=mcon $count=1 $X=3.12 $Y=3.33
+ $X2=3.12 $Y2=3.33
r254 149 183 7.24004 $w=1.7e-07 $l=1.3e-07 $layer=LI1_cond $X=2.765 $Y=3.33
+ $X2=2.635 $Y2=3.33
r255 149 151 23.1604 $w=1.68e-07 $l=3.55e-07 $layer=LI1_cond $X=2.765 $Y=3.33
+ $X2=3.12 $Y2=3.33
r256 148 184 0.133793 $w=4.9e-07 $l=4.8e-07 $layer=MET1_cond $X=2.16 $Y=3.33
+ $X2=2.64 $Y2=3.33
r257 148 181 0.133793 $w=4.9e-07 $l=4.8e-07 $layer=MET1_cond $X=2.16 $Y=3.33
+ $X2=1.68 $Y2=3.33
r258 147 148 9.3 $w=1.7e-07 $l=1.7e-07 $layer=mcon $count=1 $X=2.16 $Y=3.33
+ $X2=2.16 $Y2=3.33
r259 145 180 8.14251 $w=1.7e-07 $l=1.53e-07 $layer=LI1_cond $X=1.905 $Y=3.33
+ $X2=1.752 $Y2=3.33
r260 145 147 16.6364 $w=1.68e-07 $l=2.55e-07 $layer=LI1_cond $X=1.905 $Y=3.33
+ $X2=2.16 $Y2=3.33
r261 144 183 7.24004 $w=1.7e-07 $l=1.3e-07 $layer=LI1_cond $X=2.505 $Y=3.33
+ $X2=2.635 $Y2=3.33
r262 144 147 22.508 $w=1.68e-07 $l=3.45e-07 $layer=LI1_cond $X=2.505 $Y=3.33
+ $X2=2.16 $Y2=3.33
r263 142 181 0.267585 $w=4.9e-07 $l=9.6e-07 $layer=MET1_cond $X=0.72 $Y=3.33
+ $X2=1.68 $Y2=3.33
r264 141 142 4.65 $w=1.7e-07 $l=3.4e-07 $layer=mcon $count=2 $X=0.72 $Y=3.33
+ $X2=0.72 $Y2=3.33
r265 138 187 0.0668963 $w=4.9e-07 $l=2.4e-07 $layer=MET1_cond $X=5.76 $Y=3.33
+ $X2=6 $Y2=3.33
r266 138 158 0.200689 $w=4.9e-07 $l=7.2e-07 $layer=MET1_cond $X=5.76 $Y=3.33
+ $X2=5.04 $Y2=3.33
r267 136 172 1.63102 $w=1.68e-07 $l=2.5e-08 $layer=LI1_cond $X=9.385 $Y=3.33
+ $X2=9.36 $Y2=3.33
r268 136 137 7.24004 $w=1.7e-07 $l=1.3e-07 $layer=LI1_cond $X=9.385 $Y=3.33
+ $X2=9.515 $Y2=3.33
r269 134 169 8.15508 $w=1.68e-07 $l=1.25e-07 $layer=LI1_cond $X=8.525 $Y=3.33
+ $X2=8.4 $Y2=3.33
r270 134 135 7.24004 $w=1.7e-07 $l=1.3e-07 $layer=LI1_cond $X=8.525 $Y=3.33
+ $X2=8.655 $Y2=3.33
r271 133 172 37.5134 $w=1.68e-07 $l=5.75e-07 $layer=LI1_cond $X=8.785 $Y=3.33
+ $X2=9.36 $Y2=3.33