* File: sky130_fd_sc_lp__sdfsbp_2.pex.spice
* Created: Wed Sep  2 10:35:22 2020
* Program "Calibre xRC"
* Version "v2018.4_34.26"
* Nominal Temperature: 27C
* Circuit Temperature: 27C
* 
.subckt PM_SKY130_FD_SC_LP__SDFSBP_2%SCE 2 5 9 13 17 21 25 29 30 32 33 34 35 47
+ 60
c93 30 0 2.4535e-19 $X=2.255 $Y=1.33
r94 45 47 32.3493 $w=3.3e-07 $l=1.85e-07 $layer=POLY_cond $X=0.72 $Y=2.01
+ $X2=0.905 $Y2=2.01
r95 42 45 42.841 $w=3.3e-07 $l=2.45e-07 $layer=POLY_cond $X=0.475 $Y=2.01
+ $X2=0.72 $Y2=2.01
r96 35 60 13.5564 $w=2.43e-07 $l=2.65e-07 $layer=LI1_cond $X=0.72 $Y=2.367
+ $X2=0.985 $Y2=2.367
r97 34 35 8.20679 $w=3.28e-07 $l=2.35e-07 $layer=LI1_cond $X=0.72 $Y=2.01
+ $X2=0.72 $Y2=2.245
r98 34 45 145.28 $w=1.7e-07 $l=1.7e-07 $layer=licon1_POLY $count=1 $X=0.72
+ $Y=2.01 $X2=0.72 $Y2=2.01
r99 33 34 12.0483 $w=3.28e-07 $l=3.45e-07 $layer=LI1_cond $X=0.72 $Y=1.665
+ $X2=0.72 $Y2=2.01
r100 32 33 12.9213 $w=3.28e-07 $l=3.7e-07 $layer=LI1_cond $X=0.72 $Y=1.295
+ $X2=0.72 $Y2=1.665
r101 29 30 72.64 $w=1.7e-07 $l=3.4e-07 $layer=licon1_POLY $count=2 $X=2.255
+ $Y=1.33 $X2=2.255 $Y2=1.33
r102 27 29 42.1794 $w=2.48e-07 $l=9.15e-07 $layer=LI1_cond $X=2.215 $Y=2.245
+ $X2=2.215 $Y2=1.33
r103 25 27 7.14316 $w=1.7e-07 $l=1.62019e-07 $layer=LI1_cond $X=2.09 $Y=2.33
+ $X2=2.215 $Y2=2.245
r104 25 60 72.0909 $w=1.68e-07 $l=1.105e-06 $layer=LI1_cond $X=2.09 $Y=2.33
+ $X2=0.985 $Y2=2.33
r105 24 30 38.9318 $w=3.3e-07 $l=1.65e-07 $layer=POLY_cond $X=2.255 $Y=1.165
+ $X2=2.255 $Y2=1.33
r106 19 21 128.191 $w=1.5e-07 $l=2.5e-07 $layer=POLY_cond $X=0.475 $Y=1.53
+ $X2=0.725 $Y2=1.53
r107 17 24 369.191 $w=1.5e-07 $l=7.2e-07 $layer=POLY_cond $X=2.28 $Y=0.445
+ $X2=2.28 $Y2=1.165
r108 11 47 21.2229 $w=1.5e-07 $l=1.65e-07 $layer=POLY_cond $X=0.905 $Y=2.175
+ $X2=0.905 $Y2=2.01
r109 11 13 246.128 $w=1.5e-07 $l=4.8e-07 $layer=POLY_cond $X=0.905 $Y=2.175
+ $X2=0.905 $Y2=2.655
r110 7 21 2.83073 $w=1.5e-07 $l=7.5e-08 $layer=POLY_cond $X=0.725 $Y=1.455
+ $X2=0.725 $Y2=1.53
r111 7 9 517.894 $w=1.5e-07 $l=1.01e-06 $layer=POLY_cond $X=0.725 $Y=1.455
+ $X2=0.725 $Y2=0.445
r112 3 42 21.2229 $w=1.5e-07 $l=1.65e-07 $layer=POLY_cond $X=0.475 $Y=2.175
+ $X2=0.475 $Y2=2.01
r113 3 5 246.128 $w=1.5e-07 $l=4.8e-07 $layer=POLY_cond $X=0.475 $Y=2.175
+ $X2=0.475 $Y2=2.655
r114 2 42 21.2229 $w=1.5e-07 $l=1.65e-07 $layer=POLY_cond $X=0.475 $Y=1.845
+ $X2=0.475 $Y2=2.01
r115 1 19 2.83073 $w=1.5e-07 $l=7.5e-08 $layer=POLY_cond $X=0.475 $Y=1.605
+ $X2=0.475 $Y2=1.53
r116 1 2 123.064 $w=1.5e-07 $l=2.4e-07 $layer=POLY_cond $X=0.475 $Y=1.605
+ $X2=0.475 $Y2=1.845
.ends

.subckt PM_SKY130_FD_SC_LP__SDFSBP_2%D 3 7 8 11 14 15 16 17 26 28
c54 8 0 2.5644e-19 $X=1.515 $Y=1.945
r55 26 28 46.2115 $w=3.3e-07 $l=1.65e-07 $layer=POLY_cond $X=1.715 $Y=0.93
+ $X2=1.715 $Y2=0.765
r56 16 17 14.9615 $w=2.83e-07 $l=3.7e-07 $layer=LI1_cond $X=1.657 $Y=1.295
+ $X2=1.657 $Y2=1.665
r57 15 16 14.9615 $w=2.83e-07 $l=3.7e-07 $layer=LI1_cond $X=1.657 $Y=0.925
+ $X2=1.657 $Y2=1.295
r58 15 26 145.28 $w=1.7e-07 $l=1.7e-07 $layer=licon1_POLY $count=1 $X=1.715
+ $Y=0.93 $X2=1.715 $Y2=0.93
r59 14 15 14.9615 $w=2.83e-07 $l=3.7e-07 $layer=LI1_cond $X=1.657 $Y=0.555
+ $X2=1.657 $Y2=0.925
r60 13 17 6.06549 $w=2.83e-07 $l=1.5e-07 $layer=LI1_cond $X=1.657 $Y=1.815
+ $X2=1.657 $Y2=1.665
r61 11 24 46.2115 $w=3.3e-07 $l=1.65e-07 $layer=POLY_cond $X=1.355 $Y=1.98
+ $X2=1.355 $Y2=2.145
r62 10 11 145.28 $w=1.7e-07 $l=1.7e-07 $layer=licon1_POLY $count=1 $X=1.355
+ $Y=1.98 $X2=1.355 $Y2=1.98
r63 8 13 6.83516 $w=2.6e-07 $l=1.9653e-07 $layer=LI1_cond $X=1.515 $Y=1.945
+ $X2=1.657 $Y2=1.815
r64 8 10 7.09196 $w=2.58e-07 $l=1.6e-07 $layer=LI1_cond $X=1.515 $Y=1.945
+ $X2=1.355 $Y2=1.945
r65 7 28 102.827 $w=1.5e-07 $l=3.2e-07 $layer=POLY_cond $X=1.625 $Y=0.445
+ $X2=1.625 $Y2=0.765
r66 3 24 261.511 $w=1.5e-07 $l=5.1e-07 $layer=POLY_cond $X=1.265 $Y=2.655
+ $X2=1.265 $Y2=2.145
.ends

.subckt PM_SKY130_FD_SC_LP__SDFSBP_2%A_27_467# 1 2 9 11 12 15 19 22 24 29 34 35
c65 12 0 1.94743e-19 $X=1.34 $Y=1.41
r66 34 35 72.64 $w=1.7e-07 $l=3.4e-07 $layer=licon1_POLY $count=2 $X=1.175
+ $Y=0.98 $X2=1.175 $Y2=0.98
r67 31 32 5.31754 $w=5.63e-07 $l=8.5e-08 $layer=LI1_cond $X=0.377 $Y=0.9
+ $X2=0.377 $Y2=0.985
r68 29 31 9.73798 $w=5.63e-07 $l=4.6e-07 $layer=LI1_cond $X=0.377 $Y=0.44
+ $X2=0.377 $Y2=0.9
r69 25 31 7.93092 $w=1.7e-07 $l=2.83e-07 $layer=LI1_cond $X=0.66 $Y=0.9
+ $X2=0.377 $Y2=0.9
r70 24 34 4.68908 $w=1.7e-07 $l=1.45e-07 $layer=LI1_cond $X=1.055 $Y=0.9 $X2=1.2
+ $Y2=0.9
r71 24 25 25.7701 $w=1.68e-07 $l=3.95e-07 $layer=LI1_cond $X=1.055 $Y=0.9
+ $X2=0.66 $Y2=0.9
r72 22 32 66.2655 $w=2.58e-07 $l=1.495e-06 $layer=LI1_cond $X=0.225 $Y=2.48
+ $X2=0.225 $Y2=0.985
r73 19 35 62.0758 $w=3.3e-07 $l=3.55e-07 $layer=POLY_cond $X=1.175 $Y=1.335
+ $X2=1.175 $Y2=0.98
r74 18 35 46.2115 $w=3.3e-07 $l=1.65e-07 $layer=POLY_cond $X=1.175 $Y=0.815
+ $X2=1.175 $Y2=0.98
r75 13 15 599.936 $w=1.5e-07 $l=1.17e-06 $layer=POLY_cond $X=1.805 $Y=1.485
+ $X2=1.805 $Y2=2.655
r76 12 19 32.1775 $w=1.5e-07 $l=1.98997e-07 $layer=POLY_cond $X=1.34 $Y=1.41
+ $X2=1.175 $Y2=1.335
r77 11 13 26.9307 $w=1.5e-07 $l=1.06066e-07 $layer=POLY_cond $X=1.73 $Y=1.41
+ $X2=1.805 $Y2=1.485
r78 11 12 199.979 $w=1.5e-07 $l=3.9e-07 $layer=POLY_cond $X=1.73 $Y=1.41
+ $X2=1.34 $Y2=1.41
r79 9 18 189.723 $w=1.5e-07 $l=3.7e-07 $layer=POLY_cond $X=1.265 $Y=0.445
+ $X2=1.265 $Y2=0.815
r80 2 22 300 $w=1.7e-07 $l=1.97864e-07 $layer=licon1_PDIFF $count=2 $X=0.135
+ $Y=2.335 $X2=0.26 $Y2=2.48
r81 1 29 182 $w=1.7e-07 $l=2.60096e-07 $layer=licon1_NDIFF $count=1 $X=0.385
+ $Y=0.235 $X2=0.51 $Y2=0.44
.ends

.subckt PM_SKY130_FD_SC_LP__SDFSBP_2%SCD 1 3 4 5 8 11 12 14 15 16 17 21
r56 21 22 145.28 $w=1.7e-07 $l=1.7e-07 $layer=licon1_POLY $count=1 $X=2.795
+ $Y=1.745 $X2=2.795 $Y2=1.745
r57 17 22 8.79496 $w=3.78e-07 $l=2.9e-07 $layer=LI1_cond $X=2.7 $Y=2.035 $X2=2.7
+ $Y2=1.745
r58 16 22 2.4262 $w=3.78e-07 $l=8e-08 $layer=LI1_cond $X=2.7 $Y=1.665 $X2=2.7
+ $Y2=1.745
r59 15 21 57.7042 $w=3.3e-07 $l=3.3e-07 $layer=POLY_cond $X=2.795 $Y=2.075
+ $X2=2.795 $Y2=1.745
r60 14 21 46.2115 $w=3.3e-07 $l=1.65e-07 $layer=POLY_cond $X=2.795 $Y=1.58
+ $X2=2.795 $Y2=1.745
r61 12 14 335.862 $w=1.5e-07 $l=6.55e-07 $layer=POLY_cond $X=2.705 $Y=0.925
+ $X2=2.705 $Y2=1.58
r62 11 12 44.7709 $w=2.15e-07 $l=1.5e-07 $layer=POLY_cond $X=2.672 $Y=0.775
+ $X2=2.672 $Y2=0.925
r63 8 11 106.04 $w=1.5e-07 $l=3.3e-07 $layer=POLY_cond $X=2.64 $Y=0.445 $X2=2.64
+ $Y2=0.775
r64 4 15 32.1775 $w=1.5e-07 $l=1.98997e-07 $layer=POLY_cond $X=2.63 $Y=2.15
+ $X2=2.795 $Y2=2.075
r65 4 5 123.064 $w=1.5e-07 $l=2.4e-07 $layer=POLY_cond $X=2.63 $Y=2.15 $X2=2.39
+ $Y2=2.15
r66 1 5 26.9307 $w=1.5e-07 $l=1.06066e-07 $layer=POLY_cond $X=2.315 $Y=2.225
+ $X2=2.39 $Y2=2.15
r67 1 3 138.173 $w=1.5e-07 $l=4.3e-07 $layer=POLY_cond $X=2.315 $Y=2.225
+ $X2=2.315 $Y2=2.655
.ends

.subckt PM_SKY130_FD_SC_LP__SDFSBP_2%CLK 1 3 6 8 15
c43 15 0 1.0849e-19 $X=3.28 $Y=0.93
c44 8 0 1.99828e-19 $X=3.12 $Y=0.925
r45 13 15 20.9834 $w=3.3e-07 $l=1.2e-07 $layer=POLY_cond $X=3.16 $Y=0.93
+ $X2=3.28 $Y2=0.93
r46 10 13 15.7375 $w=3.3e-07 $l=9e-08 $layer=POLY_cond $X=3.07 $Y=0.93 $X2=3.16
+ $Y2=0.93
r47 8 13 145.28 $w=1.7e-07 $l=1.7e-07 $layer=licon1_POLY $count=1 $X=3.16
+ $Y=0.93 $X2=3.16 $Y2=0.93
r48 4 15 21.2229 $w=1.5e-07 $l=1.65e-07 $layer=POLY_cond $X=3.28 $Y=1.095
+ $X2=3.28 $Y2=0.93
r49 4 6 799.915 $w=1.5e-07 $l=1.56e-06 $layer=POLY_cond $X=3.28 $Y=1.095
+ $X2=3.28 $Y2=2.655
r50 1 10 21.2229 $w=1.5e-07 $l=1.65e-07 $layer=POLY_cond $X=3.07 $Y=0.765
+ $X2=3.07 $Y2=0.93
r51 1 3 102.827 $w=1.5e-07 $l=3.2e-07 $layer=POLY_cond $X=3.07 $Y=0.765 $X2=3.07
+ $Y2=0.445
.ends

.subckt PM_SKY130_FD_SC_LP__SDFSBP_2%A_920_73# 1 2 7 11 15 19 21 25 29 31 32 33
+ 37 38 44 45 50 59
c157 50 0 1.86354e-19 $X=8.13 $Y=1.635
c158 45 0 4.28533e-20 $X=5.21 $Y=1.65
c159 38 0 1.49559e-20 $X=9.05 $Y=1.535
c160 32 0 1.43576e-19 $X=6.43 $Y=1.635
c161 19 0 6.29478e-20 $X=9.045 $Y=0.915
r162 50 52 19.8984 $w=1.68e-07 $l=3.05e-07 $layer=LI1_cond $X=8.13 $Y=1.635
+ $X2=8.13 $Y2=1.94
r163 49 59 17.7787 $w=2.44e-07 $l=9e-08 $layer=POLY_cond $X=6.26 $Y=1.68
+ $X2=6.17 $Y2=1.68
r164 48 49 145.28 $w=1.7e-07 $l=1.7e-07 $layer=licon1_POLY $count=1 $X=6.26
+ $Y=1.68 $X2=6.26 $Y2=1.68
r165 45 56 20.9834 $w=3.3e-07 $l=1.2e-07 $layer=POLY_cond $X=5.21 $Y=1.65
+ $X2=5.21 $Y2=1.77
r166 44 45 72.64 $w=1.7e-07 $l=3.4e-07 $layer=licon1_POLY $count=2 $X=5.21
+ $Y=1.65 $X2=5.21 $Y2=1.65
r167 42 44 8.26701 $w=6.78e-07 $l=4.7e-07 $layer=LI1_cond $X=4.74 $Y=1.825
+ $X2=5.21 $Y2=1.825
r168 38 63 15.7375 $w=3.3e-07 $l=9e-08 $layer=POLY_cond $X=9.05 $Y=1.535
+ $X2=9.05 $Y2=1.625
r169 38 62 46.2115 $w=3.3e-07 $l=1.65e-07 $layer=POLY_cond $X=9.05 $Y=1.535
+ $X2=9.05 $Y2=1.37
r170 37 38 145.28 $w=1.7e-07 $l=1.7e-07 $layer=licon1_POLY $count=1 $X=9.05
+ $Y=1.535 $X2=9.05 $Y2=1.535
r171 35 37 14.1839 $w=2.58e-07 $l=3.2e-07 $layer=LI1_cond $X=9.015 $Y=1.855
+ $X2=9.015 $Y2=1.535
r172 34 52 0.716491 $w=1.7e-07 $l=8.5e-08 $layer=LI1_cond $X=8.215 $Y=1.94
+ $X2=8.13 $Y2=1.94
r173 33 35 7.21222 $w=1.7e-07 $l=1.67183e-07 $layer=LI1_cond $X=8.885 $Y=1.94
+ $X2=9.015 $Y2=1.855
r174 33 34 43.7112 $w=1.68e-07 $l=6.7e-07 $layer=LI1_cond $X=8.885 $Y=1.94
+ $X2=8.215 $Y2=1.94
r175 32 48 8.78963 $w=3.27e-07 $l=1.91181e-07 $layer=LI1_cond $X=6.43 $Y=1.635
+ $X2=6.26 $Y2=1.68
r176 31 50 0.364908 $w=1.8e-07 $l=8.5e-08 $layer=LI1_cond $X=8.045 $Y=1.635
+ $X2=8.13 $Y2=1.635
r177 31 32 99.5101 $w=1.78e-07 $l=1.615e-06 $layer=LI1_cond $X=8.045 $Y=1.635
+ $X2=6.43 $Y2=1.635
r178 27 42 4.97917 $w=3.3e-07 $l=3.4e-07 $layer=LI1_cond $X=4.74 $Y=1.485
+ $X2=4.74 $Y2=1.825
r179 27 29 32.1287 $w=3.28e-07 $l=9.2e-07 $layer=LI1_cond $X=4.74 $Y=1.485
+ $X2=4.74 $Y2=0.565
r180 23 25 497.383 $w=1.5e-07 $l=9.7e-07 $layer=POLY_cond $X=9.445 $Y=1.7
+ $X2=9.445 $Y2=2.67
r181 22 63 21.2229 $w=1.5e-07 $l=1.65e-07 $layer=POLY_cond $X=9.215 $Y=1.625
+ $X2=9.05 $Y2=1.625
r182 21 23 26.9307 $w=1.5e-07 $l=1.06066e-07 $layer=POLY_cond $X=9.37 $Y=1.625
+ $X2=9.445 $Y2=1.7
r183 21 22 79.4787 $w=1.5e-07 $l=1.55e-07 $layer=POLY_cond $X=9.37 $Y=1.625
+ $X2=9.215 $Y2=1.625
r184 19 62 233.309 $w=1.5e-07 $l=4.55e-07 $layer=POLY_cond $X=9.045 $Y=0.915
+ $X2=9.045 $Y2=1.37
r185 13 59 14.1583 $w=1.5e-07 $l=1.65e-07 $layer=POLY_cond $X=6.17 $Y=1.515
+ $X2=6.17 $Y2=1.68
r186 13 15 364.064 $w=1.5e-07 $l=7.1e-07 $layer=POLY_cond $X=6.17 $Y=1.515
+ $X2=6.17 $Y2=0.805
r187 9 59 59.2623 $w=2.44e-07 $l=3.73497e-07 $layer=POLY_cond $X=5.87 $Y=1.845
+ $X2=6.17 $Y2=1.68
r188 9 11 348.681 $w=1.5e-07 $l=6.8e-07 $layer=POLY_cond $X=5.87 $Y=1.845
+ $X2=5.87 $Y2=2.525
r189 8 56 21.2229 $w=1.5e-07 $l=1.65e-07 $layer=POLY_cond $X=5.375 $Y=1.77
+ $X2=5.21 $Y2=1.77
r190 7 9 21.9219 $w=2.44e-07 $l=1.06066e-07 $layer=POLY_cond $X=5.795 $Y=1.77
+ $X2=5.87 $Y2=1.845
r191 7 8 215.362 $w=1.5e-07 $l=4.2e-07 $layer=POLY_cond $X=5.795 $Y=1.77
+ $X2=5.375 $Y2=1.77
r192 2 42 600 $w=1.7e-07 $l=1.92614e-07 $layer=licon1_PDIFF $count=1 $X=4.6
+ $Y=1.945 $X2=4.74 $Y2=2.07
r193 1 29 182 $w=1.7e-07 $l=2.60768e-07 $layer=licon1_NDIFF $count=1 $X=4.6
+ $Y=0.365 $X2=4.74 $Y2=0.565
.ends

.subckt PM_SKY130_FD_SC_LP__SDFSBP_2%A_1291_93# 1 2 7 9 10 12 14 17 21 25 30 32
+ 34 36 39 42 43 44 45 46 50
c151 34 0 1.78649e-19 $X=9.315 $Y=2.29
c152 14 0 1.96969e-19 $X=6.74 $Y=1.825
c153 10 0 2.48299e-19 $X=6.66 $Y=2.205
r154 50 52 10.7647 $w=1.68e-07 $l=1.65e-07 $layer=LI1_cond $X=8.83 $Y=0.95
+ $X2=8.83 $Y2=1.115
r155 46 48 6.19786 $w=1.68e-07 $l=9.5e-08 $layer=LI1_cond $X=8.13 $Y=2.29
+ $X2=8.13 $Y2=2.385
r156 44 45 8.63679 $w=3.28e-07 $l=1.7e-07 $layer=LI1_cond $X=7.79 $Y=0.837
+ $X2=7.96 $Y2=0.837
r157 41 43 8.60763 $w=3.88e-07 $l=1.65e-07 $layer=LI1_cond $X=7.465 $Y=2.495
+ $X2=7.63 $Y2=2.495
r158 41 42 8.60763 $w=3.88e-07 $l=1.65e-07 $layer=LI1_cond $X=7.465 $Y=2.495
+ $X2=7.3 $Y2=2.495
r159 38 39 65.5668 $w=1.68e-07 $l=1.005e-06 $layer=LI1_cond $X=9.4 $Y=1.2
+ $X2=9.4 $Y2=2.205
r160 37 52 0.716491 $w=1.7e-07 $l=8.5e-08 $layer=LI1_cond $X=8.915 $Y=1.115
+ $X2=8.83 $Y2=1.115
r161 36 38 6.81649 $w=1.7e-07 $l=1.20208e-07 $layer=LI1_cond $X=9.315 $Y=1.115
+ $X2=9.4 $Y2=1.2
r162 36 37 26.0963 $w=1.68e-07 $l=4e-07 $layer=LI1_cond $X=9.315 $Y=1.115
+ $X2=8.915 $Y2=1.115
r163 35 46 0.716491 $w=1.7e-07 $l=8.5e-08 $layer=LI1_cond $X=8.215 $Y=2.29
+ $X2=8.13 $Y2=2.29
r164 34 39 6.81649 $w=1.7e-07 $l=1.20208e-07 $layer=LI1_cond $X=9.315 $Y=2.29
+ $X2=9.4 $Y2=2.205
r165 34 35 71.7647 $w=1.68e-07 $l=1.1e-06 $layer=LI1_cond $X=9.315 $Y=2.29
+ $X2=8.215 $Y2=2.29
r166 32 50 0.716491 $w=1.7e-07 $l=8.5e-08 $layer=LI1_cond $X=8.745 $Y=0.95
+ $X2=8.83 $Y2=0.95
r167 32 45 51.2139 $w=1.68e-07 $l=7.85e-07 $layer=LI1_cond $X=8.745 $Y=0.95
+ $X2=7.96 $Y2=0.95
r168 30 48 0.716491 $w=1.7e-07 $l=8.5e-08 $layer=LI1_cond $X=8.045 $Y=2.385
+ $X2=8.13 $Y2=2.385
r169 30 43 27.0749 $w=1.68e-07 $l=4.15e-07 $layer=LI1_cond $X=8.045 $Y=2.385
+ $X2=7.63 $Y2=2.385
r170 28 44 15.0167 $w=3.28e-07 $l=4.3e-07 $layer=LI1_cond $X=7.36 $Y=0.805
+ $X2=7.79 $Y2=0.805
r171 25 42 21.8556 $w=1.68e-07 $l=3.35e-07 $layer=LI1_cond $X=6.965 $Y=2.385
+ $X2=7.3 $Y2=2.385
r172 21 22 145.28 $w=1.7e-07 $l=1.7e-07 $layer=licon1_POLY $count=1 $X=6.8
+ $Y=1.99 $X2=6.8 $Y2=1.99
r173 19 25 7.76618 $w=1.7e-07 $l=2.03101e-07 $layer=LI1_cond $X=6.8 $Y=2.3
+ $X2=6.965 $Y2=2.385
r174 19 21 10.826 $w=3.28e-07 $l=3.1e-07 $layer=LI1_cond $X=6.8 $Y=2.3 $X2=6.8
+ $Y2=1.99
r175 15 17 107.681 $w=1.5e-07 $l=2.1e-07 $layer=POLY_cond $X=6.53 $Y=1.2
+ $X2=6.74 $Y2=1.2
r176 14 22 38.7725 $w=3.49e-07 $l=1.81659e-07 $layer=POLY_cond $X=6.74 $Y=1.825
+ $X2=6.775 $Y2=1.99
r177 13 17 2.83073 $w=1.5e-07 $l=7.5e-08 $layer=POLY_cond $X=6.74 $Y=1.275
+ $X2=6.74 $Y2=1.2
r178 13 14 282.021 $w=1.5e-07 $l=5.5e-07 $layer=POLY_cond $X=6.74 $Y=1.275
+ $X2=6.74 $Y2=1.825
r179 10 22 45.6779 $w=3.49e-07 $l=2.66364e-07 $layer=POLY_cond $X=6.66 $Y=2.205
+ $X2=6.775 $Y2=1.99
r180 10 12 102.827 $w=1.5e-07 $l=3.2e-07 $layer=POLY_cond $X=6.66 $Y=2.205
+ $X2=6.66 $Y2=2.525
r181 7 15 2.83073 $w=1.5e-07 $l=7.5e-08 $layer=POLY_cond $X=6.53 $Y=1.125
+ $X2=6.53 $Y2=1.2
r182 7 9 102.827 $w=1.5e-07 $l=3.2e-07 $layer=POLY_cond $X=6.53 $Y=1.125
+ $X2=6.53 $Y2=0.805
r183 2 41 600 $w=1.7e-07 $l=2.71109e-07 $layer=licon1_PDIFF $count=1 $X=7.325
+ $Y=2.315 $X2=7.465 $Y2=2.525
r184 1 28 182 $w=1.7e-07 $l=2.65236e-07 $layer=licon1_NDIFF $count=1 $X=7.235
+ $Y=0.595 $X2=7.36 $Y2=0.805
.ends

.subckt PM_SKY130_FD_SC_LP__SDFSBP_2%A_1163_119# 1 2 9 11 13 16 18 20 23 29 33
+ 37 38 40 41 42 45 46 47
c129 47 0 1.69947e-19 $X=7.505 $Y=1.257
c130 41 0 2.70218e-20 $X=6.037 $Y=2.02
c131 40 0 4.4433e-20 $X=5.972 $Y=1.242
c132 33 0 1.49559e-20 $X=8.385 $Y=1.29
r133 45 48 15.7745 $w=2.75e-07 $l=9e-08 $layer=POLY_cond $X=7.34 $Y=1.29
+ $X2=7.25 $Y2=1.29
r134 44 47 8.99284 $w=2.33e-07 $l=1.65e-07 $layer=LI1_cond $X=7.34 $Y=1.257
+ $X2=7.505 $Y2=1.257
r135 44 46 8.30985 $w=2.33e-07 $l=1.65e-07 $layer=LI1_cond $X=7.34 $Y=1.257
+ $X2=7.175 $Y2=1.257
r136 44 45 145.28 $w=1.7e-07 $l=1.7e-07 $layer=licon1_POLY $count=1 $X=7.34
+ $Y=1.29 $X2=7.34 $Y2=1.29
r137 41 42 8.67671 $w=2.98e-07 $l=1.7e-07 $layer=LI1_cond $X=6.037 $Y=2.02
+ $X2=6.037 $Y2=2.19
r138 38 53 18.3619 $w=3.15e-07 $l=1.2e-07 $layer=POLY_cond $X=8.48 $Y=1.51
+ $X2=8.6 $Y2=1.51
r139 38 51 10.7111 $w=3.15e-07 $l=7e-08 $layer=POLY_cond $X=8.48 $Y=1.51
+ $X2=8.41 $Y2=1.51
r140 37 38 145.28 $w=1.7e-07 $l=1.7e-07 $layer=licon1_POLY $count=1 $X=8.48
+ $Y=1.51 $X2=8.48 $Y2=1.51
r141 35 37 7.88038 $w=1.88e-07 $l=1.35e-07 $layer=LI1_cond $X=8.48 $Y=1.375
+ $X2=8.48 $Y2=1.51
r142 33 35 6.84389 $w=1.7e-07 $l=1.30767e-07 $layer=LI1_cond $X=8.385 $Y=1.29
+ $X2=8.48 $Y2=1.375
r143 33 47 57.4118 $w=1.68e-07 $l=8.8e-07 $layer=LI1_cond $X=8.385 $Y=1.29
+ $X2=7.505 $Y2=1.29
r144 32 40 1.79954 $w=2.05e-07 $l=1.48e-07 $layer=LI1_cond $X=6.12 $Y=1.242
+ $X2=5.972 $Y2=1.242
r145 32 46 57.0776 $w=2.03e-07 $l=1.055e-06 $layer=LI1_cond $X=6.12 $Y=1.242
+ $X2=7.175 $Y2=1.242
r146 29 42 12.8689 $w=2.98e-07 $l=3.35e-07 $layer=LI1_cond $X=6.1 $Y=2.525
+ $X2=6.1 $Y2=2.19
r147 25 40 4.64645 $w=2.32e-07 $l=1.30365e-07 $layer=LI1_cond $X=5.91 $Y=1.345
+ $X2=5.972 $Y2=1.242
r148 25 41 44.0374 $w=1.68e-07 $l=6.75e-07 $layer=LI1_cond $X=5.91 $Y=1.345
+ $X2=5.91 $Y2=2.02
r149 21 40 4.64645 $w=2.32e-07 $l=1.02e-07 $layer=LI1_cond $X=5.972 $Y=1.14
+ $X2=5.972 $Y2=1.242
r150 21 23 13.0871 $w=2.93e-07 $l=3.35e-07 $layer=LI1_cond $X=5.972 $Y=1.14
+ $X2=5.972 $Y2=0.805
r151 18 53 20.1192 $w=1.5e-07 $l=1.65e-07 $layer=POLY_cond $X=8.6 $Y=1.345
+ $X2=8.6 $Y2=1.51
r152 18 20 138.173 $w=1.5e-07 $l=4.3e-07 $layer=POLY_cond $X=8.6 $Y=1.345
+ $X2=8.6 $Y2=0.915
r153 14 51 20.1192 $w=1.5e-07 $l=1.65e-07 $layer=POLY_cond $X=8.41 $Y=1.675
+ $X2=8.41 $Y2=1.51
r154 14 16 328.17 $w=1.5e-07 $l=6.4e-07 $layer=POLY_cond $X=8.41 $Y=1.675
+ $X2=8.41 $Y2=2.315
r155 11 45 41.1891 $w=2.75e-07 $l=3.06594e-07 $layer=POLY_cond $X=7.575 $Y=1.125
+ $X2=7.34 $Y2=1.29
r156 11 13 102.827 $w=1.5e-07 $l=3.2e-07 $layer=POLY_cond $X=7.575 $Y=1.125
+ $X2=7.575 $Y2=0.805
r157 7 48 16.9318 $w=1.5e-07 $l=1.65e-07 $layer=POLY_cond $X=7.25 $Y=1.455
+ $X2=7.25 $Y2=1.29
r158 7 9 548.66 $w=1.5e-07 $l=1.07e-06 $layer=POLY_cond $X=7.25 $Y=1.455
+ $X2=7.25 $Y2=2.525
r159 2 29 600 $w=1.7e-07 $l=2.71109e-07 $layer=licon1_PDIFF $count=1 $X=5.945
+ $Y=2.315 $X2=6.085 $Y2=2.525
r160 1 23 182 $w=1.7e-07 $l=2.71109e-07 $layer=licon1_NDIFF $count=1 $X=5.815
+ $Y=0.595 $X2=5.955 $Y2=0.805
.ends

.subckt PM_SKY130_FD_SC_LP__SDFSBP_2%SET_B 3 7 9 11 14 16 17 18 19 23 24 25 26
+ 31 34 35 40 41
c129 35 0 2.54e-20 $X=10.8 $Y=1.795
c130 34 0 1.1803e-19 $X=10.8 $Y=1.795
c131 26 0 2.91077e-19 $X=7.585 $Y=2.035
c132 19 0 1.40653e-19 $X=10.47 $Y=2.225
r133 39 41 41.0924 $w=3.3e-07 $l=2.35e-07 $layer=POLY_cond $X=7.7 $Y=1.99
+ $X2=7.935 $Y2=1.99
r134 39 40 145.28 $w=1.7e-07 $l=1.7e-07 $layer=licon1_POLY $count=1 $X=7.7
+ $Y=1.99 $X2=7.7 $Y2=1.99
r135 36 39 3.49723 $w=3.3e-07 $l=2e-08 $layer=POLY_cond $X=7.68 $Y=1.99 $X2=7.7
+ $Y2=1.99
r136 35 50 14.0096 $w=1.88e-07 $l=2.4e-07 $layer=LI1_cond $X=10.8 $Y=1.795
+ $X2=10.8 $Y2=2.035
r137 34 35 72.64 $w=1.7e-07 $l=3.4e-07 $layer=licon1_POLY $count=2 $X=10.8
+ $Y=1.795 $X2=10.8 $Y2=1.795
r138 31 50 9.3 $w=1.7e-07 $l=1.7e-07 $layer=mcon $count=1 $X=10.8 $Y=2.035
+ $X2=10.8 $Y2=2.035
r139 29 40 12.7504 $w=2.33e-07 $l=2.6e-07 $layer=LI1_cond $X=7.44 $Y=2.012
+ $X2=7.7 $Y2=2.012
r140 28 29 9.3 $w=1.7e-07 $l=1.7e-07 $layer=mcon $count=1 $X=7.44 $Y=2.035
+ $X2=7.44 $Y2=2.035
r141 26 28 0.115467 $w=2.3e-07 $l=1.45e-07 $layer=MET1_cond $X=7.585 $Y=2.035
+ $X2=7.44 $Y2=2.035
r142 25 31 0.115467 $w=2.3e-07 $l=1.45e-07 $layer=MET1_cond $X=10.655 $Y=2.035
+ $X2=10.8 $Y2=2.035
r143 25 26 3.7995 $w=1.4e-07 $l=3.07e-06 $layer=MET1_cond $X=10.655 $Y=2.035
+ $X2=7.585 $Y2=2.035
r144 24 34 62.0758 $w=3.3e-07 $l=3.55e-07 $layer=POLY_cond $X=10.8 $Y=2.15
+ $X2=10.8 $Y2=1.795
r145 23 34 46.2115 $w=3.3e-07 $l=1.65e-07 $layer=POLY_cond $X=10.8 $Y=1.63
+ $X2=10.8 $Y2=1.795
r146 20 23 182.032 $w=1.5e-07 $l=3.55e-07 $layer=POLY_cond $X=10.71 $Y=1.275
+ $X2=10.71 $Y2=1.63
r147 18 24 32.1775 $w=1.5e-07 $l=1.98997e-07 $layer=POLY_cond $X=10.635 $Y=2.225
+ $X2=10.8 $Y2=2.15
r148 18 19 84.6064 $w=1.5e-07 $l=1.65e-07 $layer=POLY_cond $X=10.635 $Y=2.225
+ $X2=10.47 $Y2=2.225
r149 16 20 26.9307 $w=1.5e-07 $l=1.06066e-07 $layer=POLY_cond $X=10.635 $Y=1.2
+ $X2=10.71 $Y2=1.275
r150 16 17 138.447 $w=1.5e-07 $l=2.7e-07 $layer=POLY_cond $X=10.635 $Y=1.2
+ $X2=10.365 $Y2=1.2
r151 12 19 26.9307 $w=1.5e-07 $l=1.06066e-07 $layer=POLY_cond $X=10.395 $Y=2.3
+ $X2=10.47 $Y2=2.225
r152 12 14 189.723 $w=1.5e-07 $l=3.7e-07 $layer=POLY_cond $X=10.395 $Y=2.3
+ $X2=10.395 $Y2=2.67
r153 9 17 26.9307 $w=1.5e-07 $l=1.06066e-07 $layer=POLY_cond $X=10.29 $Y=1.125
+ $X2=10.365 $Y2=1.2
r154 9 11 102.827 $w=1.5e-07 $l=3.2e-07 $layer=POLY_cond $X=10.29 $Y=1.125
+ $X2=10.29 $Y2=0.805
r155 5 41 21.2229 $w=1.5e-07 $l=1.65e-07 $layer=POLY_cond $X=7.935 $Y=1.825
+ $X2=7.935 $Y2=1.99
r156 5 7 523.021 $w=1.5e-07 $l=1.02e-06 $layer=POLY_cond $X=7.935 $Y=1.825
+ $X2=7.935 $Y2=0.805
r157 1 36 21.2229 $w=1.5e-07 $l=1.65e-07 $layer=POLY_cond $X=7.68 $Y=2.155
+ $X2=7.68 $Y2=1.99
r158 1 3 189.723 $w=1.5e-07 $l=3.7e-07 $layer=POLY_cond $X=7.68 $Y=2.155
+ $X2=7.68 $Y2=2.525
.ends

.subckt PM_SKY130_FD_SC_LP__SDFSBP_2%A_629_47# 1 2 10 14 15 16 17 18 21 23 27 29
+ 33 37 39 40 41 47 50 52 55
c131 55 0 1.99828e-19 $X=4.24 $Y=1.06
c132 52 0 4.28533e-20 $X=3.745 $Y=1.23
c133 21 0 4.4433e-20 $X=5.74 $Y=0.805
r134 55 58 81.9121 $w=5.25e-07 $l=5.05e-07 $layer=POLY_cond $X=4.337 $Y=1.06
+ $X2=4.337 $Y2=1.565
r135 55 57 47.2626 $w=5.25e-07 $l=1.65e-07 $layer=POLY_cond $X=4.337 $Y=1.06
+ $X2=4.337 $Y2=0.895
r136 54 55 72.64 $w=1.7e-07 $l=3.4e-07 $layer=licon1_POLY $count=2 $X=4.24
+ $Y=1.06 $X2=4.24 $Y2=1.06
r137 52 54 9.6624 $w=6.25e-07 $l=4.95e-07 $layer=LI1_cond $X=3.745 $Y=1.23
+ $X2=4.24 $Y2=1.23
r138 51 52 4.88 $w=6.25e-07 $l=2.5e-07 $layer=LI1_cond $X=3.495 $Y=1.23
+ $X2=3.745 $Y2=1.23
r139 50 52 3.4964 $w=3.9e-07 $l=3.35e-07 $layer=LI1_cond $X=3.745 $Y=0.895
+ $X2=3.745 $Y2=1.23
r140 49 50 8.56945 $w=3.88e-07 $l=2.9e-07 $layer=LI1_cond $X=3.745 $Y=0.605
+ $X2=3.745 $Y2=0.895
r141 45 51 7.86514 $w=1.9e-07 $l=3.35e-07 $layer=LI1_cond $X=3.495 $Y=1.565
+ $X2=3.495 $Y2=1.23
r142 45 47 52.244 $w=1.88e-07 $l=8.95e-07 $layer=LI1_cond $X=3.495 $Y=1.565
+ $X2=3.495 $Y2=2.46
r143 41 49 6.87824 $w=3.3e-07 $l=2.64953e-07 $layer=LI1_cond $X=3.55 $Y=0.44
+ $X2=3.745 $Y2=0.605
r144 41 43 9.25447 $w=3.28e-07 $l=2.65e-07 $layer=LI1_cond $X=3.55 $Y=0.44
+ $X2=3.285 $Y2=0.44
r145 35 37 282.021 $w=1.5e-07 $l=5.5e-07 $layer=POLY_cond $X=9.57 $Y=0.255
+ $X2=9.57 $Y2=0.805
r146 31 33 315.351 $w=1.5e-07 $l=6.15e-07 $layer=POLY_cond $X=8.92 $Y=3.075
+ $X2=8.92 $Y2=2.46
r147 30 40 20.4101 $w=1.5e-07 $l=7.5e-08 $layer=POLY_cond $X=6.375 $Y=3.15
+ $X2=6.3 $Y2=3.15
r148 29 31 26.9307 $w=1.5e-07 $l=1.06066e-07 $layer=POLY_cond $X=8.845 $Y=3.15
+ $X2=8.92 $Y2=3.075
r149 29 30 1266.53 $w=1.5e-07 $l=2.47e-06 $layer=POLY_cond $X=8.845 $Y=3.15
+ $X2=6.375 $Y2=3.15
r150 25 40 5.30422 $w=1.5e-07 $l=7.5e-08 $layer=POLY_cond $X=6.3 $Y=3.075
+ $X2=6.3 $Y2=3.15
r151 25 27 282.021 $w=1.5e-07 $l=5.5e-07 $layer=POLY_cond $X=6.3 $Y=3.075
+ $X2=6.3 $Y2=2.525
r152 24 39 20.4101 $w=1.5e-07 $l=7.5e-08 $layer=POLY_cond $X=5.815 $Y=0.18
+ $X2=5.74 $Y2=0.18
r153 23 35 26.9307 $w=1.5e-07 $l=1.06066e-07 $layer=POLY_cond $X=9.495 $Y=0.18
+ $X2=9.57 $Y2=0.255
r154 23 24 1886.98 $w=1.5e-07 $l=3.68e-06 $layer=POLY_cond $X=9.495 $Y=0.18
+ $X2=5.815 $Y2=0.18
r155 19 39 5.30422 $w=1.5e-07 $l=7.5e-08 $layer=POLY_cond $X=5.74 $Y=0.255
+ $X2=5.74 $Y2=0.18
r156 19 21 282.021 $w=1.5e-07 $l=5.5e-07 $layer=POLY_cond $X=5.74 $Y=0.255
+ $X2=5.74 $Y2=0.805
r157 17 40 20.4101 $w=1.5e-07 $l=7.5e-08 $layer=POLY_cond $X=6.225 $Y=3.15
+ $X2=6.3 $Y2=3.15
r158 17 18 833.245 $w=1.5e-07 $l=1.625e-06 $layer=POLY_cond $X=6.225 $Y=3.15
+ $X2=4.6 $Y2=3.15
r159 15 39 20.4101 $w=1.5e-07 $l=7.5e-08 $layer=POLY_cond $X=5.665 $Y=0.18
+ $X2=5.74 $Y2=0.18
r160 15 16 546.096 $w=1.5e-07 $l=1.065e-06 $layer=POLY_cond $X=5.665 $Y=0.18
+ $X2=4.6 $Y2=0.18
r161 14 58 358.936 $w=1.5e-07 $l=7e-07 $layer=POLY_cond $X=4.525 $Y=2.265
+ $X2=4.525 $Y2=1.565
r162 12 18 26.9307 $w=1.5e-07 $l=1.06066e-07 $layer=POLY_cond $X=4.525 $Y=3.075
+ $X2=4.6 $Y2=3.15
r163 12 14 415.34 $w=1.5e-07 $l=8.1e-07 $layer=POLY_cond $X=4.525 $Y=3.075
+ $X2=4.525 $Y2=2.265
r164 10 57 164.085 $w=1.5e-07 $l=3.2e-07 $layer=POLY_cond $X=4.525 $Y=0.575
+ $X2=4.525 $Y2=0.895
r165 7 16 26.9307 $w=1.5e-07 $l=1.06066e-07 $layer=POLY_cond $X=4.525 $Y=0.255
+ $X2=4.6 $Y2=0.18
r166 7 10 164.085 $w=1.5e-07 $l=3.2e-07 $layer=POLY_cond $X=4.525 $Y=0.255
+ $X2=4.525 $Y2=0.575
r167 2 47 600 $w=1.7e-07 $l=1.92614e-07 $layer=licon1_PDIFF $count=1 $X=3.355
+ $Y=2.335 $X2=3.495 $Y2=2.46
r168 1 43 182 $w=1.7e-07 $l=2.65942e-07 $layer=licon1_NDIFF $count=1 $X=3.145
+ $Y=0.235 $X2=3.285 $Y2=0.44
.ends

.subckt PM_SKY130_FD_SC_LP__SDFSBP_2%A_1946_369# 1 2 9 13 17 20 21 24 26 28 33
+ 34 36
c92 17 0 1.11454e-19 $X=10.18 $Y=1.68
c93 9 0 1.78649e-19 $X=9.805 $Y=2.67
r94 32 33 36.5348 $w=1.68e-07 $l=5.6e-07 $layer=LI1_cond $X=11.84 $Y=1.255
+ $X2=11.84 $Y2=1.815
r95 28 33 7.76618 $w=3.3e-07 $l=2.03101e-07 $layer=LI1_cond $X=11.755 $Y=1.98
+ $X2=11.84 $Y2=1.815
r96 28 30 8.90524 $w=3.28e-07 $l=2.55e-07 $layer=LI1_cond $X=11.755 $Y=1.98
+ $X2=11.5 $Y2=1.98
r97 27 34 7.24004 $w=1.7e-07 $l=1.3e-07 $layer=LI1_cond $X=11.38 $Y=1.17
+ $X2=11.25 $Y2=1.17
r98 26 32 6.81649 $w=1.7e-07 $l=1.20208e-07 $layer=LI1_cond $X=11.755 $Y=1.17
+ $X2=11.84 $Y2=1.255
r99 26 27 24.4652 $w=1.68e-07 $l=3.75e-07 $layer=LI1_cond $X=11.755 $Y=1.17
+ $X2=11.38 $Y2=1.17
r100 22 34 0.132371 $w=2.6e-07 $l=8.5e-08 $layer=LI1_cond $X=11.25 $Y=1.085
+ $X2=11.25 $Y2=1.17
r101 22 24 9.30819 $w=2.58e-07 $l=2.1e-07 $layer=LI1_cond $X=11.25 $Y=1.085
+ $X2=11.25 $Y2=0.875
r102 20 34 7.24004 $w=1.7e-07 $l=1.3e-07 $layer=LI1_cond $X=11.12 $Y=1.17
+ $X2=11.25 $Y2=1.17
r103 20 21 50.5615 $w=1.68e-07 $l=7.75e-07 $layer=LI1_cond $X=11.12 $Y=1.17
+ $X2=10.345 $Y2=1.17
r104 18 36 36.5152 $w=3.3e-07 $l=2.5e-07 $layer=POLY_cond $X=10.18 $Y=1.755
+ $X2=9.93 $Y2=1.755
r105 17 18 145.28 $w=1.7e-07 $l=1.7e-07 $layer=licon1_POLY $count=1 $X=10.18
+ $Y=1.68 $X2=10.18 $Y2=1.68
r106 15 21 7.76618 $w=1.7e-07 $l=2.03101e-07 $layer=LI1_cond $X=10.18 $Y=1.255
+ $X2=10.345 $Y2=1.17
r107 15 17 14.8421 $w=3.28e-07 $l=4.25e-07 $layer=LI1_cond $X=10.18 $Y=1.255
+ $X2=10.18 $Y2=1.68
r108 11 36 21.2229 $w=1.5e-07 $l=2.4e-07 $layer=POLY_cond $X=9.93 $Y=1.515
+ $X2=9.93 $Y2=1.755
r109 11 13 364.064 $w=1.5e-07 $l=7.1e-07 $layer=POLY_cond $X=9.93 $Y=1.515
+ $X2=9.93 $Y2=0.805
r110 7 36 18.2576 $w=3.3e-07 $l=2.95973e-07 $layer=POLY_cond $X=9.805 $Y=1.995
+ $X2=9.93 $Y2=1.755
r111 7 9 346.117 $w=1.5e-07 $l=6.75e-07 $layer=POLY_cond $X=9.805 $Y=1.995
+ $X2=9.805 $Y2=2.67
r112 2 30 600 $w=1.7e-07 $l=1.97864e-07 $layer=licon1_PDIFF $count=1 $X=11.375
+ $Y=1.835 $X2=11.5 $Y2=1.98
r113 1 24 182 $w=1.7e-07 $l=2.65236e-07 $layer=licon1_NDIFF $count=1 $X=11.16
+ $Y=0.665 $X2=11.285 $Y2=0.875
.ends

.subckt PM_SKY130_FD_SC_LP__SDFSBP_2%A_1799_408# 1 2 3 12 16 18 22 26 30 34 36
+ 37 40 44 51 53 57 62 64 65 68 69 70 74 75 77 80 85
c175 85 0 2.54e-20 $X=11.79 $Y=1.51
c176 75 0 1.1803e-19 $X=11.235 $Y=1.535
c177 74 0 1.29912e-19 $X=11.15 $Y=2.505
c178 62 0 2.91996e-20 $X=9.75 $Y=2.155
c179 57 0 1.63067e-19 $X=9.665 $Y=0.725
r180 84 85 30.474 $w=3.3e-07 $l=7.5e-08 $layer=POLY_cond $X=11.715 $Y=1.51
+ $X2=11.79 $Y2=1.51
r181 83 84 37.5952 $w=3.3e-07 $l=2.15e-07 $layer=POLY_cond $X=11.5 $Y=1.51
+ $X2=11.715 $Y2=1.51
r182 78 83 15.7375 $w=3.3e-07 $l=9e-08 $layer=POLY_cond $X=11.41 $Y=1.51
+ $X2=11.5 $Y2=1.51
r183 77 78 145.28 $w=1.7e-07 $l=1.7e-07 $layer=licon1_POLY $count=1 $X=11.41
+ $Y=1.51 $X2=11.41 $Y2=1.51
r184 75 77 9.16716 $w=2.18e-07 $l=1.75e-07 $layer=LI1_cond $X=11.235 $Y=1.535
+ $X2=11.41 $Y2=1.535
r185 73 75 6.96323 $w=2.2e-07 $l=1.46458e-07 $layer=LI1_cond $X=11.15 $Y=1.645
+ $X2=11.235 $Y2=1.535
r186 73 74 56.107 $w=1.68e-07 $l=8.6e-07 $layer=LI1_cond $X=11.15 $Y=1.645
+ $X2=11.15 $Y2=2.505
r187 70 72 2.61919 $w=3.28e-07 $l=7.5e-08 $layer=LI1_cond $X=10.535 $Y=2.67
+ $X2=10.61 $Y2=2.67
r188 69 74 7.76618 $w=3.3e-07 $l=2.03101e-07 $layer=LI1_cond $X=11.065 $Y=2.67
+ $X2=11.15 $Y2=2.505
r189 69 72 15.8897 $w=3.28e-07 $l=4.55e-07 $layer=LI1_cond $X=11.065 $Y=2.67
+ $X2=10.61 $Y2=2.67
r190 68 70 7.76618 $w=3.3e-07 $l=2.03101e-07 $layer=LI1_cond $X=10.45 $Y=2.505
+ $X2=10.535 $Y2=2.67
r191 67 68 11.0909 $w=1.68e-07 $l=1.7e-07 $layer=LI1_cond $X=10.45 $Y=2.335
+ $X2=10.45 $Y2=2.505
r192 66 80 1.13756 $w=1.8e-07 $l=8.5e-08 $layer=LI1_cond $X=9.835 $Y=2.245
+ $X2=9.75 $Y2=2.245
r193 65 67 6.82373 $w=1.8e-07 $l=1.25499e-07 $layer=LI1_cond $X=10.365 $Y=2.245
+ $X2=10.45 $Y2=2.335
r194 65 66 32.6566 $w=1.78e-07 $l=5.3e-07 $layer=LI1_cond $X=10.365 $Y=2.245
+ $X2=9.835 $Y2=2.245
r195 63 80 5.41628 $w=1.7e-07 $l=9e-08 $layer=LI1_cond $X=9.75 $Y=2.335 $X2=9.75
+ $Y2=2.245
r196 63 64 14.3529 $w=1.68e-07 $l=2.2e-07 $layer=LI1_cond $X=9.75 $Y=2.335
+ $X2=9.75 $Y2=2.555
r197 62 80 5.41628 $w=1.7e-07 $l=9e-08 $layer=LI1_cond $X=9.75 $Y=2.155 $X2=9.75
+ $Y2=2.245
r198 61 62 84.4866 $w=1.68e-07 $l=1.295e-06 $layer=LI1_cond $X=9.75 $Y=0.86
+ $X2=9.75 $Y2=2.155
r199 57 61 7.28469 $w=2.7e-07 $l=1.72337e-07 $layer=LI1_cond $X=9.665 $Y=0.725
+ $X2=9.75 $Y2=0.86
r200 57 59 15.5793 $w=2.68e-07 $l=3.65e-07 $layer=LI1_cond $X=9.665 $Y=0.725
+ $X2=9.3 $Y2=0.725
r201 53 64 7.76618 $w=3.3e-07 $l=2.03101e-07 $layer=LI1_cond $X=9.665 $Y=2.72
+ $X2=9.75 $Y2=2.555
r202 53 55 18.5089 $w=3.28e-07 $l=5.3e-07 $layer=LI1_cond $X=9.665 $Y=2.72
+ $X2=9.135 $Y2=2.72
r203 50 51 76.9149 $w=1.5e-07 $l=1.5e-07 $layer=POLY_cond $X=13.045 $Y=1.42
+ $X2=13.195 $Y2=1.42
r204 48 49 76.9149 $w=1.5e-07 $l=1.5e-07 $layer=POLY_cond $X=12.52 $Y=1.42
+ $X2=12.67 $Y2=1.42
r205 47 48 143.574 $w=1.5e-07 $l=2.8e-07 $layer=POLY_cond $X=12.24 $Y=1.42
+ $X2=12.52 $Y2=1.42
r206 46 47 76.9149 $w=1.5e-07 $l=1.5e-07 $layer=POLY_cond $X=12.09 $Y=1.42
+ $X2=12.24 $Y2=1.42
r207 42 51 2.83073 $w=1.5e-07 $l=7.5e-08 $layer=POLY_cond $X=13.195 $Y=1.495
+ $X2=13.195 $Y2=1.42
r208 42 44 338.426 $w=1.5e-07 $l=6.6e-07 $layer=POLY_cond $X=13.195 $Y=1.495
+ $X2=13.195 $Y2=2.155
r209 38 50 2.83073 $w=1.5e-07 $l=7.5e-08 $layer=POLY_cond $X=13.045 $Y=1.345
+ $X2=13.045 $Y2=1.42
r210 38 40 456.362 $w=1.5e-07 $l=8.9e-07 $layer=POLY_cond $X=13.045 $Y=1.345
+ $X2=13.045 $Y2=0.455
r211 37 49 38.4574 $w=1.5e-07 $l=7.5e-08 $layer=POLY_cond $X=12.745 $Y=1.42
+ $X2=12.67 $Y2=1.42
r212 36 50 38.4574 $w=1.5e-07 $l=7.5e-08 $layer=POLY_cond $X=12.97 $Y=1.42
+ $X2=13.045 $Y2=1.42
r213 36 37 115.372 $w=1.5e-07 $l=2.25e-07 $layer=POLY_cond $X=12.97 $Y=1.42
+ $X2=12.745 $Y2=1.42
r214 32 49 2.83073 $w=1.5e-07 $l=7.5e-08 $layer=POLY_cond $X=12.67 $Y=1.495
+ $X2=12.67 $Y2=1.42
r215 32 34 497.383 $w=1.5e-07 $l=9.7e-07 $layer=POLY_cond $X=12.67 $Y=1.495
+ $X2=12.67 $Y2=2.465
r216 28 48 2.83073 $w=1.5e-07 $l=7.5e-08 $layer=POLY_cond $X=12.52 $Y=1.345
+ $X2=12.52 $Y2=1.42
r217 28 30 348.681 $w=1.5e-07 $l=6.8e-07 $layer=POLY_cond $X=12.52 $Y=1.345
+ $X2=12.52 $Y2=0.665
r218 24 47 2.83073 $w=1.5e-07 $l=7.5e-08 $layer=POLY_cond $X=12.24 $Y=1.495
+ $X2=12.24 $Y2=1.42