* File: sky130_fd_sc_lp__sdfsbp_lp.pex.spice
* Created: Fri Aug 28 11:29:25 2020
* Program "Calibre xRC"
* Version "v2018.4_34.26"
* Nominal Temperature: 27C
* Circuit Temperature: 27C
* 
.subckt PM_SKY130_FD_SC_LP__SDFSBP_LP%SCE 3 7 9 13 17 22 24 25 26 28 29 30 34 36
+ 37 38 42 43 45 46 55 59
c109 34 0 1.88859e-19 $X=1.095 $Y=1.02
r110 46 59 8.06514 $w=4.68e-07 $l=1.15e-07 $layer=LI1_cond $X=2.16 $Y=1.045
+ $X2=2.275 $Y2=1.045
r111 45 55 4.00199 $w=4.68e-07 $l=1.15e-07 $layer=LI1_cond $X=1.68 $Y=1.045
+ $X2=1.565 $Y2=1.045
r112 42 43 72.64 $w=1.7e-07 $l=3.4e-07 $layer=licon1_POLY $count=2 $X=2.675
+ $Y=1.285 $X2=2.675 $Y2=1.285
r113 40 42 0.177299 $w=3.23e-07 $l=5e-09 $layer=LI1_cond $X=2.672 $Y=1.28
+ $X2=2.672 $Y2=1.285
r114 38 40 7.72402 $w=1.7e-07 $l=2.00035e-07 $layer=LI1_cond $X=2.51 $Y=1.195
+ $X2=2.672 $Y2=1.28
r115 38 59 15.3316 $w=1.68e-07 $l=2.35e-07 $layer=LI1_cond $X=2.51 $Y=1.195
+ $X2=2.275 $Y2=1.195
r116 37 45 3.05382 $w=4.68e-07 $l=1.2e-07 $layer=LI1_cond $X=1.8 $Y=1.045
+ $X2=1.68 $Y2=1.045
r117 36 46 3.05382 $w=4.68e-07 $l=1.2e-07 $layer=LI1_cond $X=2.04 $Y=1.045
+ $X2=2.16 $Y2=1.045
r118 36 37 6.10763 $w=4.68e-07 $l=2.4e-07 $layer=LI1_cond $X=2.04 $Y=1.045
+ $X2=1.8 $Y2=1.045
r119 34 52 15.7375 $w=3.3e-07 $l=9e-08 $layer=POLY_cond $X=1.095 $Y=1.02
+ $X2=1.095 $Y2=1.11
r120 34 51 46.2115 $w=3.3e-07 $l=1.65e-07 $layer=POLY_cond $X=1.095 $Y=1.02
+ $X2=1.095 $Y2=0.855
r121 33 55 16.4136 $w=3.28e-07 $l=4.7e-07 $layer=LI1_cond $X=1.095 $Y=1.02
+ $X2=1.565 $Y2=1.02
r122 33 34 145.28 $w=1.7e-07 $l=1.7e-07 $layer=licon1_POLY $count=1 $X=1.095
+ $Y=1.02 $X2=1.095 $Y2=1.02
r123 29 43 59.4528 $w=3.3e-07 $l=3.4e-07 $layer=POLY_cond $X=2.675 $Y=1.625
+ $X2=2.675 $Y2=1.285
r124 29 30 31.2043 $w=3.3e-07 $l=1.65e-07 $layer=POLY_cond $X=2.675 $Y=1.625
+ $X2=2.675 $Y2=1.79
r125 28 43 46.2115 $w=3.3e-07 $l=1.65e-07 $layer=POLY_cond $X=2.675 $Y=1.12
+ $X2=2.675 $Y2=1.285
r126 26 28 123.064 $w=1.5e-07 $l=2.4e-07 $layer=POLY_cond $X=2.585 $Y=0.88
+ $X2=2.585 $Y2=1.12
r127 25 26 58.3064 $w=1.8e-07 $l=1.5e-07 $layer=POLY_cond $X=2.57 $Y=0.73
+ $X2=2.57 $Y2=0.88
r128 22 30 187.582 $w=2.5e-07 $l=7.55e-07 $layer=POLY_cond $X=2.655 $Y=2.545
+ $X2=2.655 $Y2=1.79
r129 17 25 91.58 $w=1.5e-07 $l=2.85e-07 $layer=POLY_cond $X=2.555 $Y=0.445
+ $X2=2.555 $Y2=0.73
r130 13 51 210.234 $w=1.5e-07 $l=4.1e-07 $layer=POLY_cond $X=1.005 $Y=0.445
+ $X2=1.005 $Y2=0.855
r131 10 24 9.46703 $w=1.5e-07 $l=1.35e-07 $layer=POLY_cond $X=0.69 $Y=1.11
+ $X2=0.555 $Y2=1.11
r132 9 52 21.2229 $w=1.5e-07 $l=1.65e-07 $layer=POLY_cond $X=0.93 $Y=1.11
+ $X2=1.095 $Y2=1.11
r133 9 10 123.064 $w=1.5e-07 $l=2.4e-07 $layer=POLY_cond $X=0.93 $Y=1.11
+ $X2=0.69 $Y2=1.11
r134 5 24 15.9654 $w=2e-07 $l=1.00623e-07 $layer=POLY_cond $X=0.615 $Y=1.035
+ $X2=0.555 $Y2=1.11
r135 5 7 302.532 $w=1.5e-07 $l=5.9e-07 $layer=POLY_cond $X=0.615 $Y=1.035
+ $X2=0.615 $Y2=0.445
r136 1 24 15.9654 $w=2e-07 $l=7.98436e-08 $layer=POLY_cond $X=0.545 $Y=1.185
+ $X2=0.555 $Y2=1.11
r137 1 3 337.897 $w=2.5e-07 $l=1.36e-06 $layer=POLY_cond $X=0.545 $Y=1.185
+ $X2=0.545 $Y2=2.545
.ends

.subckt PM_SKY130_FD_SC_LP__SDFSBP_LP%A_27_409# 1 2 9 12 13 15 16 17 20 24 28 34
+ 37
c67 34 0 2.24716e-19 $X=1.22 $Y=1.59
c68 24 0 1.88859e-19 $X=0.4 $Y=0.47
c69 20 0 1.96756e-19 $X=1.735 $Y=0.805
r70 34 35 145.28 $w=1.7e-07 $l=1.7e-07 $layer=licon1_POLY $count=1 $X=1.22
+ $Y=1.59 $X2=1.22 $Y2=1.59
r71 32 37 1.95047 $w=3.3e-07 $l=2.25e-07 $layer=LI1_cond $X=0.565 $Y=1.59
+ $X2=0.34 $Y2=1.59
r72 32 34 22.8742 $w=3.28e-07 $l=6.55e-07 $layer=LI1_cond $X=0.565 $Y=1.59
+ $X2=1.22 $Y2=1.59
r73 28 30 24.795 $w=3.28e-07 $l=7.1e-07 $layer=LI1_cond $X=0.28 $Y=2.19 $X2=0.28
+ $Y2=2.9
r74 26 37 4.48582 $w=3.9e-07 $l=1.92678e-07 $layer=LI1_cond $X=0.28 $Y=1.755
+ $X2=0.34 $Y2=1.59
r75 26 28 15.1913 $w=3.28e-07 $l=4.35e-07 $layer=LI1_cond $X=0.28 $Y=1.755
+ $X2=0.28 $Y2=2.19
r76 22 37 4.48582 $w=3.9e-07 $l=1.65e-07 $layer=LI1_cond $X=0.34 $Y=1.425
+ $X2=0.34 $Y2=1.59
r77 22 24 25.3834 $w=4.48e-07 $l=9.55e-07 $layer=LI1_cond $X=0.34 $Y=1.425
+ $X2=0.34 $Y2=0.47
r78 18 20 41.0213 $w=1.5e-07 $l=8e-08 $layer=POLY_cond $X=1.655 $Y=0.805
+ $X2=1.735 $Y2=0.805
r79 16 35 50.7098 $w=3.3e-07 $l=2.9e-07 $layer=POLY_cond $X=1.51 $Y=1.59
+ $X2=1.22 $Y2=1.59
r80 16 17 1.50692 $w=3.3e-07 $l=1.25e-07 $layer=POLY_cond $X=1.51 $Y=1.59
+ $X2=1.635 $Y2=1.59
r81 13 20 2.83073 $w=1.5e-07 $l=7.5e-08 $layer=POLY_cond $X=1.735 $Y=0.73
+ $X2=1.735 $Y2=0.805
r82 13 15 91.58 $w=1.5e-07 $l=2.85e-07 $layer=POLY_cond $X=1.735 $Y=0.73
+ $X2=1.735 $Y2=0.445
r83 12 17 30.2679 $w=2e-07 $l=1.74714e-07 $layer=POLY_cond $X=1.655 $Y=1.425
+ $X2=1.635 $Y2=1.59
r84 11 18 2.83073 $w=1.5e-07 $l=7.5e-08 $layer=POLY_cond $X=1.655 $Y=0.88
+ $X2=1.655 $Y2=0.805
r85 11 12 279.457 $w=1.5e-07 $l=5.45e-07 $layer=POLY_cond $X=1.655 $Y=0.88
+ $X2=1.655 $Y2=1.425
r86 7 17 30.2679 $w=2e-07 $l=1.65e-07 $layer=POLY_cond $X=1.635 $Y=1.755
+ $X2=1.635 $Y2=1.59
r87 7 9 196.278 $w=2.5e-07 $l=7.9e-07 $layer=POLY_cond $X=1.635 $Y=1.755
+ $X2=1.635 $Y2=2.545
r88 2 30 400 $w=1.7e-07 $l=9.24662e-07 $layer=licon1_PDIFF $count=1 $X=0.135
+ $Y=2.045 $X2=0.28 $Y2=2.9
r89 2 28 400 $w=1.7e-07 $l=2.05061e-07 $layer=licon1_PDIFF $count=1 $X=0.135
+ $Y=2.045 $X2=0.28 $Y2=2.19
r90 1 24 182 $w=1.7e-07 $l=2.98831e-07 $layer=licon1_NDIFF $count=1 $X=0.255
+ $Y=0.235 $X2=0.4 $Y2=0.47
.ends

.subckt PM_SKY130_FD_SC_LP__SDFSBP_LP%D 3 7 9 10 14
c43 14 0 1.18806e-19 $X=2.135 $Y=1.625
c44 10 0 1.96756e-19 $X=2.16 $Y=1.665
c45 7 0 1.05911e-19 $X=2.125 $Y=0.445
r46 14 17 32.3805 $w=3.3e-07 $l=1.65e-07 $layer=POLY_cond $X=2.135 $Y=1.625
+ $X2=2.135 $Y2=1.79
r47 14 16 46.2115 $w=3.3e-07 $l=1.65e-07 $layer=POLY_cond $X=2.135 $Y=1.625
+ $X2=2.135 $Y2=1.46
r48 10 14 145.28 $w=1.7e-07 $l=1.7e-07 $layer=licon1_POLY $count=1 $X=2.135
+ $Y=1.625 $X2=2.135 $Y2=1.625
r49 9 10 15.8897 $w=3.28e-07 $l=4.55e-07 $layer=LI1_cond $X=1.68 $Y=1.625
+ $X2=2.135 $Y2=1.625
r50 7 16 520.457 $w=1.5e-07 $l=1.015e-06 $layer=POLY_cond $X=2.125 $Y=0.445
+ $X2=2.125 $Y2=1.46
r51 3 17 187.582 $w=2.5e-07 $l=7.55e-07 $layer=POLY_cond $X=2.165 $Y=2.545
+ $X2=2.165 $Y2=1.79
.ends

.subckt PM_SKY130_FD_SC_LP__SDFSBP_LP%SCD 1 3 6 12 14 15 19 21
c53 19 0 1.86498e-19 $X=3.525 $Y=1.275
c54 6 0 4.76528e-20 $X=3.185 $Y=2.545
r55 19 22 63.0283 $w=6.3e-07 $l=5.05e-07 $layer=POLY_cond $X=3.375 $Y=1.275
+ $X2=3.375 $Y2=1.78
r56 19 21 50.3829 $w=6.3e-07 $l=1.65e-07 $layer=POLY_cond $X=3.375 $Y=1.275
+ $X2=3.375 $Y2=1.11
r57 14 15 14.0454 $w=3.18e-07 $l=3.9e-07 $layer=LI1_cond $X=3.525 $Y=1.275
+ $X2=3.525 $Y2=1.665
r58 14 19 72.64 $w=1.7e-07 $l=3.4e-07 $layer=licon1_POLY $count=2 $X=3.525
+ $Y=1.275 $X2=3.525 $Y2=1.275
r59 10 12 107.681 $w=1.5e-07 $l=2.1e-07 $layer=POLY_cond $X=2.945 $Y=0.805
+ $X2=3.155 $Y2=0.805
r60 8 12 2.83073 $w=1.5e-07 $l=7.5e-08 $layer=POLY_cond $X=3.155 $Y=0.88
+ $X2=3.155 $Y2=0.805
r61 8 21 117.936 $w=1.5e-07 $l=2.3e-07 $layer=POLY_cond $X=3.155 $Y=0.88
+ $X2=3.155 $Y2=1.11
r62 6 22 190.067 $w=2.5e-07 $l=7.65e-07 $layer=POLY_cond $X=3.185 $Y=2.545
+ $X2=3.185 $Y2=1.78
r63 1 10 2.83073 $w=1.5e-07 $l=7.5e-08 $layer=POLY_cond $X=2.945 $Y=0.73
+ $X2=2.945 $Y2=0.805
r64 1 3 91.58 $w=1.5e-07 $l=2.85e-07 $layer=POLY_cond $X=2.945 $Y=0.73 $X2=2.945
+ $Y2=0.445
.ends

.subckt PM_SKY130_FD_SC_LP__SDFSBP_LP%CLK 3 6 9 13 16 17 20
c53 9 0 2.10375e-19 $X=4.28 $Y=2.545
c54 6 0 1.66046e-19 $X=4.282 $Y=1.588
r55 20 22 30.6629 $w=3.85e-07 $l=1.65e-07 $layer=POLY_cond $X=4.282 $Y=1.615
+ $X2=4.282 $Y2=1.78
r56 20 21 145.28 $w=1.7e-07 $l=1.7e-07 $layer=licon1_POLY $count=1 $X=4.31
+ $Y=1.615 $X2=4.31 $Y2=1.615
r57 17 21 8.73063 $w=3.28e-07 $l=2.5e-07 $layer=LI1_cond $X=4.56 $Y=1.615
+ $X2=4.31 $Y2=1.615
r58 9 22 190.067 $w=2.5e-07 $l=7.65e-07 $layer=POLY_cond $X=4.28 $Y=2.545
+ $X2=4.28 $Y2=1.78
r59 6 20 3.9003 $w=3.85e-07 $l=2.7e-08 $layer=POLY_cond $X=4.282 $Y=1.588
+ $X2=4.282 $Y2=1.615
r60 6 16 39.4364 $w=3.85e-07 $l=2.73e-07 $layer=POLY_cond $X=4.282 $Y=1.588
+ $X2=4.282 $Y2=1.315
r61 1 16 24.5286 $w=3.85e-07 $l=1.5e-07 $layer=POLY_cond $X=4.345 $Y=1.165
+ $X2=4.345 $Y2=1.315
r62 1 13 199.979 $w=1.5e-07 $l=3.9e-07 $layer=POLY_cond $X=4.525 $Y=1.165
+ $X2=4.525 $Y2=0.775
r63 1 3 199.979 $w=1.5e-07 $l=3.9e-07 $layer=POLY_cond $X=4.165 $Y=1.165
+ $X2=4.165 $Y2=0.775
.ends

.subckt PM_SKY130_FD_SC_LP__SDFSBP_LP%A_987_409# 1 2 9 13 17 20 24 26 27 29 31
+ 34 35 37 40 41 42 45 46 49 50 55 61 63 64 65 70 79
c212 63 0 1.7417e-19 $X=6.13 $Y=1.54
c213 50 0 2.85022e-19 $X=10.715 $Y=1.69
c214 46 0 3.84399e-20 $X=9.98 $Y=1.32
c215 35 0 6.73817e-20 $X=6.74 $Y=1.465
c216 27 0 4.93603e-20 $X=5.24 $Y=2.98
c217 24 0 1.61015e-19 $X=5.075 $Y=2.475
r218 70 83 32.3805 $w=3.3e-07 $l=1.65e-07 $layer=POLY_cond $X=10.88 $Y=1.77
+ $X2=10.88 $Y2=1.935
r219 69 70 145.28 $w=1.7e-07 $l=1.7e-07 $layer=licon1_POLY $count=1 $X=10.88
+ $Y=1.77 $X2=10.88 $Y2=1.77
r220 62 63 3.29577 $w=4.78e-07 $l=8.5e-08 $layer=LI1_cond $X=6.045 $Y=1.54
+ $X2=6.13 $Y2=1.54
r221 61 74 32.3805 $w=3.3e-07 $l=1.65e-07 $layer=POLY_cond $X=5.84 $Y=1.615
+ $X2=5.84 $Y2=1.78
r222 60 62 5.10825 $w=4.78e-07 $l=2.05e-07 $layer=LI1_cond $X=5.84 $Y=1.54
+ $X2=6.045 $Y2=1.54
r223 60 61 145.28 $w=1.7e-07 $l=1.7e-07 $layer=licon1_POLY $count=1 $X=5.84
+ $Y=1.615 $X2=5.84 $Y2=1.615
r224 57 60 2.11806 $w=4.78e-07 $l=8.5e-08 $layer=LI1_cond $X=5.755 $Y=1.54
+ $X2=5.84 $Y2=1.54
r225 53 55 6.64871 $w=3.88e-07 $l=2.25e-07 $layer=LI1_cond $X=5.53 $Y=0.81
+ $X2=5.755 $Y2=0.81
r226 51 65 2.76166 $w=1.7e-07 $l=1.65e-07 $layer=LI1_cond $X=10.145 $Y=1.69
+ $X2=9.98 $Y2=1.69
r227 50 69 3.47907 $w=2.63e-07 $l=8e-08 $layer=LI1_cond $X=10.847 $Y=1.69
+ $X2=10.847 $Y2=1.77
r228 50 51 37.1872 $w=1.68e-07 $l=5.7e-07 $layer=LI1_cond $X=10.715 $Y=1.69
+ $X2=10.145 $Y2=1.69
r229 48 65 3.70735 $w=2.5e-07 $l=1.18427e-07 $layer=LI1_cond $X=9.9 $Y=1.775
+ $X2=9.98 $Y2=1.69
r230 48 49 48.2781 $w=1.68e-07 $l=7.4e-07 $layer=LI1_cond $X=9.9 $Y=1.775
+ $X2=9.9 $Y2=2.515
r231 46 79 46.2115 $w=3.3e-07 $l=1.65e-07 $layer=POLY_cond $X=9.98 $Y=1.32
+ $X2=9.98 $Y2=1.155
r232 45 46 145.28 $w=1.7e-07 $l=1.7e-07 $layer=licon1_POLY $count=1 $X=9.98
+ $Y=1.32 $X2=9.98 $Y2=1.32
r233 43 65 3.70735 $w=2.5e-07 $l=8.5e-08 $layer=LI1_cond $X=9.98 $Y=1.605
+ $X2=9.98 $Y2=1.69
r234 43 45 9.95292 $w=3.28e-07 $l=2.85e-07 $layer=LI1_cond $X=9.98 $Y=1.605
+ $X2=9.98 $Y2=1.32
r235 41 49 6.81649 $w=1.7e-07 $l=1.20208e-07 $layer=LI1_cond $X=9.815 $Y=2.6
+ $X2=9.9 $Y2=2.515
r236 41 42 147.118 $w=1.68e-07 $l=2.255e-06 $layer=LI1_cond $X=9.815 $Y=2.6
+ $X2=7.56 $Y2=2.6
r237 39 42 6.81649 $w=1.7e-07 $l=1.20208e-07 $layer=LI1_cond $X=7.475 $Y=2.685
+ $X2=7.56 $Y2=2.6
r238 39 40 13.7005 $w=1.68e-07 $l=2.1e-07 $layer=LI1_cond $X=7.475 $Y=2.685
+ $X2=7.475 $Y2=2.895
r239 38 64 5.16603 $w=1.7e-07 $l=8.5e-08 $layer=LI1_cond $X=6.13 $Y=2.98
+ $X2=6.045 $Y2=2.98
r240 37 40 6.81649 $w=1.7e-07 $l=1.20208e-07 $layer=LI1_cond $X=7.39 $Y=2.98
+ $X2=7.475 $Y2=2.895
r241 37 38 82.2032 $w=1.68e-07 $l=1.26e-06 $layer=LI1_cond $X=7.39 $Y=2.98
+ $X2=6.13 $Y2=2.98
r242 35 76 46.2115 $w=3.3e-07 $l=1.65e-07 $layer=POLY_cond $X=6.74 $Y=1.465
+ $X2=6.74 $Y2=1.3
r243 34 63 21.3027 $w=3.28e-07 $l=6.1e-07 $layer=LI1_cond $X=6.74 $Y=1.465
+ $X2=6.13 $Y2=1.465
r244 34 35 145.28 $w=1.7e-07 $l=1.7e-07 $layer=licon1_POLY $count=1 $X=6.74
+ $Y=1.465 $X2=6.74 $Y2=1.465
r245 31 64 1.34256 $w=1.7e-07 $l=8.5e-08 $layer=LI1_cond $X=6.045 $Y=2.895
+ $X2=6.045 $Y2=2.98
r246 30 62 6.90116 $w=1.7e-07 $l=2.4e-07 $layer=LI1_cond $X=6.045 $Y=1.78
+ $X2=6.045 $Y2=1.54
r247 30 31 72.7433 $w=1.68e-07 $l=1.115e-06 $layer=LI1_cond $X=6.045 $Y=1.78
+ $X2=6.045 $Y2=2.895
r248 29 57 6.90116 $w=1.7e-07 $l=2.4e-07 $layer=LI1_cond $X=5.755 $Y=1.3
+ $X2=5.755 $Y2=1.54
r249 28 55 5.6248 $w=1.7e-07 $l=1.95e-07 $layer=LI1_cond $X=5.755 $Y=1.005
+ $X2=5.755 $Y2=0.81
r250 28 29 19.246 $w=1.68e-07 $l=2.95e-07 $layer=LI1_cond $X=5.755 $Y=1.005
+ $X2=5.755 $Y2=1.3
r251 26 64 5.16603 $w=1.7e-07 $l=8.5e-08 $layer=LI1_cond $X=5.96 $Y=2.98
+ $X2=6.045 $Y2=2.98
r252 26 27 46.9733 $w=1.68e-07 $l=7.2e-07 $layer=LI1_cond $X=5.96 $Y=2.98
+ $X2=5.24 $Y2=2.98
r253 22 27 7.76618 $w=1.7e-07 $l=2.03101e-07 $layer=LI1_cond $X=5.075 $Y=2.895
+ $X2=5.24 $Y2=2.98
r254 22 24 14.6675 $w=3.28e-07 $l=4.2e-07 $layer=LI1_cond $X=5.075 $Y=2.895
+ $X2=5.075 $Y2=2.475
r255 20 83 163.979 $w=2.5e-07 $l=6.6e-07 $layer=POLY_cond $X=10.84 $Y=2.595
+ $X2=10.84 $Y2=1.935
r256 17 79 102.827 $w=1.5e-07 $l=3.2e-07 $layer=POLY_cond $X=10.04 $Y=0.835
+ $X2=10.04 $Y2=1.155
r257 13 76 238.436 $w=1.5e-07 $l=4.65e-07 $layer=POLY_cond $X=6.83 $Y=0.835
+ $X2=6.83 $Y2=1.3
r258 9 74 202.49 $w=2.5e-07 $l=8.15e-07 $layer=POLY_cond $X=5.88 $Y=2.595
+ $X2=5.88 $Y2=1.78
r259 2 24 300 $w=1.7e-07 $l=4.95076e-07 $layer=licon1_PDIFF $count=2 $X=4.935
+ $Y=2.045 $X2=5.075 $Y2=2.475
r260 1 53 182 $w=1.7e-07 $l=3.07124e-07 $layer=licon1_NDIFF $count=1 $X=5.39
+ $Y=0.565 $X2=5.53 $Y2=0.81
.ends

.subckt PM_SKY130_FD_SC_LP__SDFSBP_LP%A_1423_99# 1 2 9 13 18 19 20 21 22 24 27
+ 31
c81 27 0 2.90644e-20 $X=8.18 $Y=1.225
c82 22 0 1.75395e-19 $X=7.765 $Y=2.21
c83 20 0 8.26509e-20 $X=8.095 $Y=1.31
r84 33 35 13.9889 $w=3.3e-07 $l=8e-08 $layer=POLY_cond $X=7.19 $Y=1.675 $X2=7.27
+ $Y2=1.675
r85 28 31 4.97969 $w=4.03e-07 $l=1.75e-07 $layer=LI1_cond $X=8.18 $Y=0.817
+ $X2=8.355 $Y2=0.817
r86 26 28 5.85399 $w=1.7e-07 $l=2.03e-07 $layer=LI1_cond $X=8.18 $Y=1.02
+ $X2=8.18 $Y2=0.817
r87 26 27 13.3743 $w=1.68e-07 $l=2.05e-07 $layer=LI1_cond $X=8.18 $Y=1.02
+ $X2=8.18 $Y2=1.225
r88 22 24 30.8855 $w=2.48e-07 $l=6.7e-07 $layer=LI1_cond $X=7.765 $Y=2.21
+ $X2=8.435 $Y2=2.21
r89 20 27 6.81649 $w=1.7e-07 $l=1.20208e-07 $layer=LI1_cond $X=8.095 $Y=1.31
+ $X2=8.18 $Y2=1.225
r90 20 21 21.5294 $w=1.68e-07 $l=3.3e-07 $layer=LI1_cond $X=8.095 $Y=1.31
+ $X2=7.765 $Y2=1.31
r91 19 35 57.7042 $w=3.3e-07 $l=3.3e-07 $layer=POLY_cond $X=7.6 $Y=1.675
+ $X2=7.27 $Y2=1.675
r92 18 19 145.28 $w=1.7e-07 $l=1.7e-07 $layer=licon1_POLY $count=1 $X=7.6
+ $Y=1.675 $X2=7.6 $Y2=1.675
r93 16 22 6.98653 $w=2.5e-07 $l=2.18746e-07 $layer=LI1_cond $X=7.6 $Y=2.085
+ $X2=7.765 $Y2=2.21
r94 16 18 14.3182 $w=3.28e-07 $l=4.1e-07 $layer=LI1_cond $X=7.6 $Y=2.085 $X2=7.6
+ $Y2=1.675
r95 15 21 7.76618 $w=1.7e-07 $l=2.03101e-07 $layer=LI1_cond $X=7.6 $Y=1.395
+ $X2=7.765 $Y2=1.31
r96 15 18 9.7783 $w=3.28e-07 $l=2.8e-07 $layer=LI1_cond $X=7.6 $Y=1.395 $X2=7.6
+ $Y2=1.675
r97 11 35 9.34494 $w=2.5e-07 $l=1.65e-07 $layer=POLY_cond $X=7.27 $Y=1.84
+ $X2=7.27 $Y2=1.675
r98 11 13 187.582 $w=2.5e-07 $l=7.55e-07 $layer=POLY_cond $X=7.27 $Y=1.84
+ $X2=7.27 $Y2=2.595
r99 7 33 21.2229 $w=1.5e-07 $l=1.65e-07 $layer=POLY_cond $X=7.19 $Y=1.51
+ $X2=7.19 $Y2=1.675
r100 7 9 346.117 $w=1.5e-07 $l=6.75e-07 $layer=POLY_cond $X=7.19 $Y=1.51
+ $X2=7.19 $Y2=0.835
r101 2 24 600 $w=1.7e-07 $l=2.13834e-07 $layer=licon1_PDIFF $count=1 $X=8.295
+ $Y=2.095 $X2=8.435 $Y2=2.25
r102 1 31 182 $w=1.7e-07 $l=2.5229e-07 $layer=licon1_NDIFF $count=1 $X=8.21
+ $Y=0.625 $X2=8.355 $Y2=0.815
.ends

.subckt PM_SKY130_FD_SC_LP__SDFSBP_LP%A_1201_419# 1 2 9 13 14 15 17 20 24 28 29
+ 32 34 35 36 39 40 43 44 45 46 49 52 54 55 56 60 64 69 70 73
c198 69 0 1.82916e-19 $X=9.44 $Y=1.365
c199 60 0 8.29256e-20 $X=6.615 $Y=0.835
c200 35 0 6.73817e-20 $X=6.64 $Y=2.16
c201 20 0 6.26699e-20 $X=9.48 $Y=2.595
r202 69 70 72.64 $w=1.7e-07 $l=3.4e-07 $layer=licon1_POLY $count=2 $X=9.44
+ $Y=1.365 $X2=9.44 $Y2=1.365
r203 65 67 16.6364 $w=1.68e-07 $l=2.55e-07 $layer=LI1_cond $X=8.53 $Y=1.285
+ $X2=8.785 $Y2=1.285
r204 60 62 4.36531 $w=3.28e-07 $l=1.25e-07 $layer=LI1_cond $X=6.615 $Y=0.835
+ $X2=6.615 $Y2=0.96
r205 56 67 5.54545 $w=1.68e-07 $l=8.5e-08 $layer=LI1_cond $X=8.87 $Y=1.285
+ $X2=8.785 $Y2=1.285
r206 55 69 5.12568 $w=1.7e-07 $l=1.65e-07 $layer=LI1_cond $X=9.275 $Y=1.285
+ $X2=9.44 $Y2=1.285
r207 55 56 26.4225 $w=1.68e-07 $l=4.05e-07 $layer=LI1_cond $X=9.275 $Y=1.285
+ $X2=8.87 $Y2=1.285
r208 54 67 0.716491 $w=1.7e-07 $l=8.5e-08 $layer=LI1_cond $X=8.785 $Y=1.2
+ $X2=8.785 $Y2=1.285
r209 53 54 49.9091 $w=1.68e-07 $l=7.65e-07 $layer=LI1_cond $X=8.785 $Y=0.435
+ $X2=8.785 $Y2=1.2
r210 51 65 0.716491 $w=1.7e-07 $l=8.5e-08 $layer=LI1_cond $X=8.53 $Y=1.37
+ $X2=8.53 $Y2=1.285
r211 51 52 13.3743 $w=1.68e-07 $l=2.05e-07 $layer=LI1_cond $X=8.53 $Y=1.37
+ $X2=8.53 $Y2=1.575
r212 49 73 46.2115 $w=3.3e-07 $l=1.65e-07 $layer=POLY_cond $X=8.17 $Y=1.74
+ $X2=8.17 $Y2=1.575
r213 48 49 145.28 $w=1.7e-07 $l=1.7e-07 $layer=licon1_POLY $count=1 $X=8.17
+ $Y=1.74 $X2=8.17 $Y2=1.74
r214 46 52 7.76618 $w=3.3e-07 $l=2.03101e-07 $layer=LI1_cond $X=8.445 $Y=1.74
+ $X2=8.53 $Y2=1.575
r215 46 48 9.60369 $w=3.28e-07 $l=2.75e-07 $layer=LI1_cond $X=8.445 $Y=1.74
+ $X2=8.17 $Y2=1.74
r216 44 53 6.81649 $w=1.7e-07 $l=1.20208e-07 $layer=LI1_cond $X=8.7 $Y=0.35
+ $X2=8.785 $Y2=0.435
r217 44 45 51.2139 $w=1.68e-07 $l=7.85e-07 $layer=LI1_cond $X=8.7 $Y=0.35
+ $X2=7.915 $Y2=0.35
r218 42 45 6.81649 $w=1.7e-07 $l=1.20208e-07 $layer=LI1_cond $X=7.83 $Y=0.435
+ $X2=7.915 $Y2=0.35
r219 42 43 28.7059 $w=1.68e-07 $l=4.4e-07 $layer=LI1_cond $X=7.83 $Y=0.435
+ $X2=7.83 $Y2=0.875
r220 41 64 5.16603 $w=1.7e-07 $l=8.5e-08 $layer=LI1_cond $X=7.255 $Y=0.96
+ $X2=7.17 $Y2=0.96
r221 40 43 6.81649 $w=1.7e-07 $l=1.20208e-07 $layer=LI1_cond $X=7.745 $Y=0.96
+ $X2=7.83 $Y2=0.875
r222 40 41 31.9679 $w=1.68e-07 $l=4.9e-07 $layer=LI1_cond $X=7.745 $Y=0.96
+ $X2=7.255 $Y2=0.96
r223 38 64 1.34256 $w=1.7e-07 $l=8.5e-08 $layer=LI1_cond $X=7.17 $Y=1.045
+ $X2=7.17 $Y2=0.96
r224 38 39 67.1979 $w=1.68e-07 $l=1.03e-06 $layer=LI1_cond $X=7.17 $Y=1.045
+ $X2=7.17 $Y2=2.075
r225 37 62 4.62375 $w=1.7e-07 $l=1.65e-07 $layer=LI1_cond $X=6.78 $Y=0.96
+ $X2=6.615 $Y2=0.96
r226 36 64 5.16603 $w=1.7e-07 $l=8.5e-08 $layer=LI1_cond $X=7.085 $Y=0.96
+ $X2=7.17 $Y2=0.96
r227 36 37 19.8984 $w=1.68e-07 $l=3.05e-07 $layer=LI1_cond $X=7.085 $Y=0.96
+ $X2=6.78 $Y2=0.96
r228 34 39 6.81649 $w=1.7e-07 $l=1.20208e-07 $layer=LI1_cond $X=7.085 $Y=2.16
+ $X2=7.17 $Y2=2.075
r229 34 35 29.0321 $w=1.68e-07 $l=4.45e-07 $layer=LI1_cond $X=7.085 $Y=2.16
+ $X2=6.64 $Y2=2.16
r230 30 35 7.76618 $w=1.7e-07 $l=2.03101e-07 $layer=LI1_cond $X=6.475 $Y=2.245
+ $X2=6.64 $Y2=2.16
r231 30 32 5.23838 $w=3.28e-07 $l=1.5e-07 $layer=LI1_cond $X=6.475 $Y=2.245
+ $X2=6.475 $Y2=2.395
r232 28 70 59.4528 $w=3.3e-07 $l=3.4e-07 $layer=POLY_cond $X=9.44 $Y=1.705
+ $X2=9.44 $Y2=1.365
r233 28 29 32.3805 $w=3.3e-07 $l=1.65e-07 $layer=POLY_cond $X=9.44 $Y=1.705
+ $X2=9.44 $Y2=1.87
r234 27 70 41.8716 $w=3.3e-07 $l=1.65e-07 $layer=POLY_cond $X=9.44 $Y=1.2
+ $X2=9.44 $Y2=1.365
r235 24 27 187.16 $w=1.5e-07 $l=3.65e-07 $layer=POLY_cond $X=9.5 $Y=0.835
+ $X2=9.5 $Y2=1.2
r236 20 29 180.129 $w=2.5e-07 $l=7.25e-07 $layer=POLY_cond $X=9.48 $Y=2.595
+ $X2=9.48 $Y2=1.87
r237 15 17 104.433 $w=1.5e-07 $l=3.25e-07 $layer=POLY_cond $X=8.57 $Y=1.16
+ $X2=8.57 $Y2=0.835
r238 13 15 26.9307 $w=1.5e-07 $l=1.06066e-07 $layer=POLY_cond $X=8.495 $Y=1.235
+ $X2=8.57 $Y2=1.16
r239 13 14 82.0426 $w=1.5e-07 $l=1.6e-07 $layer=POLY_cond $X=8.495 $Y=1.235
+ $X2=8.335 $Y2=1.235
r240 11 14 26.9307 $w=1.5e-07 $l=1.06066e-07 $layer=POLY_cond $X=8.26 $Y=1.31
+ $X2=8.335 $Y2=1.235
r241 11 73 135.883 $w=1.5e-07 $l=2.65e-07 $layer=POLY_cond $X=8.26 $Y=1.31
+ $X2=8.26 $Y2=1.575
r242 7 49 32.3805 $w=3.3e-07 $l=1.65e-07 $layer=POLY_cond $X=8.17 $Y=1.905
+ $X2=8.17 $Y2=1.74
r243 7 9 171.433 $w=2.5e-07 $l=6.9e-07 $layer=POLY_cond $X=8.17 $Y=1.905
+ $X2=8.17 $Y2=2.595
r244 2 32 600 $w=1.7e-07 $l=6.01581e-07 $layer=licon1_PDIFF $count=1 $X=6.005
+ $Y=2.095 $X2=6.475 $Y2=2.395
r245 1 60 182 $w=1.7e-07 $l=5.18459e-07 $layer=licon1_NDIFF $count=1 $X=6.395
+ $Y=0.415 $X2=6.615 $Y2=0.835
.ends

.subckt PM_SKY130_FD_SC_LP__SDFSBP_LP%SET_B 3 7 9 11 12 13 18 20 21 24 26 33 36
+ 37 38
c129 37 0 8.27582e-20 $X=12.15 $Y=1.725
c130 24 0 6.26699e-20 $X=8.88 $Y=1.665
c131 20 0 3.84399e-20 $X=12.095 $Y=1.665
c132 7 0 1.11715e-19 $X=8.96 $Y=0.835
r133 36 39 32.3805 $w=3.3e-07 $l=1.65e-07 $layer=POLY_cond $X=12.15 $Y=1.725
+ $X2=12.15 $Y2=1.89
r134 36 38 46.2115 $w=3.3e-07 $l=1.65e-07 $layer=POLY_cond $X=12.15 $Y=1.725
+ $X2=12.15 $Y2=1.56
r135 36 37 145.28 $w=1.7e-07 $l=1.7e-07 $layer=licon1_POLY $count=1 $X=12.15
+ $Y=1.725 $X2=12.15 $Y2=1.725
r136 31 33 10.4917 $w=3.3e-07 $l=6e-08 $layer=POLY_cond $X=8.9 $Y=1.715 $X2=8.96
+ $Y2=1.715
r137 28 31 34.9723 $w=3.3e-07 $l=2e-07 $layer=POLY_cond $X=8.7 $Y=1.715 $X2=8.9
+ $Y2=1.715
r138 26 37 9.3 $w=1.7e-07 $l=1.7e-07 $layer=mcon $count=1 $X=12.24 $Y=1.665
+ $X2=12.24 $Y2=1.665
r139 24 31 145.28 $w=1.7e-07 $l=1.7e-07 $layer=licon1_POLY $count=1 $X=8.9
+ $Y=1.715 $X2=8.9 $Y2=1.715
r140 23 24 9.3 $w=1.7e-07 $l=1.7e-07 $layer=mcon $count=1 $X=8.88 $Y=1.665
+ $X2=8.88 $Y2=1.665
r141 21 23 0.115467 $w=2.3e-07 $l=1.45e-07 $layer=MET1_cond $X=9.025 $Y=1.665
+ $X2=8.88 $Y2=1.665
r142 20 26 0.115467 $w=2.3e-07 $l=1.45e-07 $layer=MET1_cond $X=12.095 $Y=1.665
+ $X2=12.24 $Y2=1.665
r143 20 21 3.7995 $w=1.4e-07 $l=3.07e-06 $layer=MET1_cond $X=12.095 $Y=1.665
+ $X2=9.025 $Y2=1.665
r144 18 39 175.16 $w=2.5e-07 $l=7.05e-07 $layer=POLY_cond $X=12.11 $Y=2.595
+ $X2=12.11 $Y2=1.89
r145 14 38 299.968 $w=1.5e-07 $l=5.85e-07 $layer=POLY_cond $X=12.06 $Y=0.975
+ $X2=12.06 $Y2=1.56
r146 12 14 26.9307 $w=1.5e-07 $l=1.06066e-07 $layer=POLY_cond $X=11.985 $Y=0.9
+ $X2=12.06 $Y2=0.975
r147 12 13 189.723 $w=1.5e-07 $l=3.7e-07 $layer=POLY_cond $X=11.985 $Y=0.9
+ $X2=11.615 $Y2=0.9
r148 9 13 26.9307 $w=1.5e-07 $l=1.06066e-07 $layer=POLY_cond $X=11.54 $Y=0.825
+ $X2=11.615 $Y2=0.9
r149 9 11 91.58 $w=1.5e-07 $l=2.85e-07 $layer=POLY_cond $X=11.54 $Y=0.825
+ $X2=11.54 $Y2=0.54
r150 5 33 21.2229 $w=1.5e-07 $l=1.65e-07 $layer=POLY_cond $X=8.96 $Y=1.55
+ $X2=8.96 $Y2=1.715
r151 5 7 366.628 $w=1.5e-07 $l=7.15e-07 $layer=POLY_cond $X=8.96 $Y=1.55
+ $X2=8.96 $Y2=0.835
r152 1 28 9.34494 $w=2.5e-07 $l=1.65e-07 $layer=POLY_cond $X=8.7 $Y=1.88 $X2=8.7
+ $Y2=1.715
r153 1 3 177.644 $w=2.5e-07 $l=7.15e-07 $layer=POLY_cond $X=8.7 $Y=1.88 $X2=8.7
+ $Y2=2.595
.ends

.subckt PM_SKY130_FD_SC_LP__SDFSBP_LP%A_761_113# 1 2 9 11 13 15 16 18 20 21 23
+ 24 28 29 30 31 32 33 35 38 40 41 43 44 45 49 50 51 55 60 61 65 66 68 70
c211 65 0 1.66046e-19 $X=4.98 $Y=1.72
c212 50 0 1.55371e-19 $X=4.955 $Y=1.135
c213 43 0 1.07173e-19 $X=10.43 $Y=1.725
c214 41 0 1.82916e-19 $X=10.095 $Y=1.8
c215 40 0 1.65443e-19 $X=10.355 $Y=1.8
c216 23 0 8.29256e-20 $X=6.29 $Y=1.21
c217 15 0 1.7417e-19 $X=4.955 $Y=1.555
r218 73 75 25.3549 $w=3.3e-07 $l=1.45e-07 $layer=POLY_cond $X=4.81 $Y=1.72
+ $X2=4.955 $Y2=1.72
r219 70 72 10.1762 $w=2.48e-07 $l=1.95e-07 $layer=LI1_cond $X=3.99 $Y=0.81
+ $X2=3.99 $Y2=1.005
r220 66 75 4.37153 $w=3.3e-07 $l=2.5e-08 $layer=POLY_cond $X=4.98 $Y=1.72
+ $X2=4.955 $Y2=1.72
r221 65 66 145.28 $w=1.7e-07 $l=1.7e-07 $layer=licon1_POLY $count=1 $X=4.98
+ $Y=1.72 $X2=4.98 $Y2=1.72
r222 63 65 8.78052 $w=3.13e-07 $l=2.4e-07 $layer=LI1_cond $X=4.982 $Y=1.96
+ $X2=4.982 $Y2=1.72
r223 62 68 2.76166 $w=1.7e-07 $l=1.65e-07 $layer=LI1_cond $X=4.18 $Y=2.045
+ $X2=4.015 $Y2=2.045
r224 61 63 7.64049 $w=1.7e-07 $l=1.94921e-07 $layer=LI1_cond $X=4.825 $Y=2.045
+ $X2=4.982 $Y2=1.96
r225 61 62 42.0802 $w=1.68e-07 $l=6.45e-07 $layer=LI1_cond $X=4.825 $Y=2.045
+ $X2=4.18 $Y2=2.045
r226 60 68 3.70735 $w=2.5e-07 $l=1.12916e-07 $layer=LI1_cond $X=3.95 $Y=1.96
+ $X2=4.015 $Y2=2.045
r227 60 72 62.3048 $w=1.68e-07 $l=9.55e-07 $layer=LI1_cond $X=3.95 $Y=1.96
+ $X2=3.95 $Y2=1.005
r228 55 57 24.795 $w=3.28e-07 $l=7.1e-07 $layer=LI1_cond $X=4.015 $Y=2.19
+ $X2=4.015 $Y2=2.9
r229 53 68 3.70735 $w=2.5e-07 $l=8.5e-08 $layer=LI1_cond $X=4.015 $Y=2.13
+ $X2=4.015 $Y2=2.045
r230 53 55 2.09535 $w=3.28e-07 $l=6e-08 $layer=LI1_cond $X=4.015 $Y=2.13
+ $X2=4.015 $Y2=2.19
r231 47 49 346.117 $w=1.5e-07 $l=6.75e-07 $layer=POLY_cond $X=10.785 $Y=1.215
+ $X2=10.785 $Y2=0.54
r232 46 49 146.138 $w=1.5e-07 $l=2.85e-07 $layer=POLY_cond $X=10.785 $Y=0.255
+ $X2=10.785 $Y2=0.54
r233 44 47 26.9307 $w=1.5e-07 $l=1.06066e-07 $layer=POLY_cond $X=10.71 $Y=1.29
+ $X2=10.785 $Y2=1.215
r234 44 45 105.117 $w=1.5e-07 $l=2.05e-07 $layer=POLY_cond $X=10.71 $Y=1.29
+ $X2=10.505 $Y2=1.29
r235 42 45 26.9307 $w=1.5e-07 $l=1.06066e-07 $layer=POLY_cond $X=10.43 $Y=1.365
+ $X2=10.505 $Y2=1.29
r236 42 43 184.596 $w=1.5e-07 $l=3.6e-07 $layer=POLY_cond $X=10.43 $Y=1.365
+ $X2=10.43 $Y2=1.725
r237 40 43 26.9307 $w=1.5e-07 $l=1.06066e-07 $layer=POLY_cond $X=10.355 $Y=1.8
+ $X2=10.43 $Y2=1.725
r238 40 41 133.319 $w=1.5e-07 $l=2.6e-07 $layer=POLY_cond $X=10.355 $Y=1.8
+ $X2=10.095 $Y2=1.8
r239 36 41 29.1797 $w=1.5e-07 $l=1.58114e-07 $layer=POLY_cond $X=9.97 $Y=1.875
+ $X2=10.095 $Y2=1.8
r240 36 38 178.887 $w=2.5e-07 $l=7.2e-07 $layer=POLY_cond $X=9.97 $Y=1.875
+ $X2=9.97 $Y2=2.595
r241 33 35 110.86 $w=2.5e-07 $l=5.75e-07 $layer=POLY_cond $X=6.74 $Y=2.02
+ $X2=6.74 $Y2=2.595
r242 31 46 26.9307 $w=1.5e-07 $l=1.06066e-07 $layer=POLY_cond $X=10.71 $Y=0.18
+ $X2=10.785 $Y2=0.255
r243 31 32 2212.59 $w=1.5e-07 $l=4.315e-06 $layer=POLY_cond $X=10.71 $Y=0.18
+ $X2=6.395 $Y2=0.18
r244 29 33 29.1797 $w=1.5e-07 $l=1.58114e-07 $layer=POLY_cond $X=6.615 $Y=1.945
+ $X2=6.74 $Y2=2.02
r245 29 30 128.191 $w=1.5e-07 $l=2.5e-07 $layer=POLY_cond $X=6.615 $Y=1.945
+ $X2=6.365 $Y2=1.945
r246 26 52 66.2216 $w=1.65e-07 $l=2.32379e-07 $layer=POLY_cond $X=6.32 $Y=0.91
+ $X2=6.305 $Y2=1.135
r247 26 28 146.138 $w=1.5e-07 $l=2.85e-07 $layer=POLY_cond $X=6.32 $Y=0.91
+ $X2=6.32 $Y2=0.625
r248 25 32 26.9307 $w=1.5e-07 $l=1.06066e-07 $layer=POLY_cond $X=6.32 $Y=0.255
+ $X2=6.395 $Y2=0.18
r249 25 28 189.723 $w=1.5e-07 $l=3.7e-07 $layer=POLY_cond $X=6.32 $Y=0.255
+ $X2=6.32 $Y2=0.625
r250 24 30 26.9307 $w=1.5e-07 $l=1.06066e-07 $layer=POLY_cond $X=6.29 $Y=1.87
+ $X2=6.365 $Y2=1.945
r251 23 52 22.4034 $w=1.65e-07 $l=8.21584e-08 $layer=POLY_cond $X=6.29 $Y=1.21
+ $X2=6.305 $Y2=1.135
r252 23 24 338.426 $w=1.5e-07 $l=6.6e-07 $layer=POLY_cond $X=6.29 $Y=1.21
+ $X2=6.29 $Y2=1.87
r253 22 51 20.4101 $w=1.5e-07 $l=7.5e-08 $layer=POLY_cond $X=5.39 $Y=1.135
+ $X2=5.315 $Y2=1.135
r254 21 52 5.10115 $w=1.5e-07 $l=9e-08 $layer=POLY_cond $X=6.215 $Y=1.135
+ $X2=6.305 $Y2=1.135
r255 21 22 423.032 $w=1.5e-07 $l=8.25e-07 $layer=POLY_cond $X=6.215 $Y=1.135
+ $X2=5.39 $Y2=1.135
r256 18 51 5.30422 $w=1.5e-07 $l=7.5e-08 $layer=POLY_cond $X=5.315 $Y=1.06
+ $X2=5.315 $Y2=1.135
r257 18 20 91.58 $w=1.5e-07 $l=2.85e-07 $layer=POLY_cond $X=5.315 $Y=1.06
+ $X2=5.315 $Y2=0.775
r258 17 50 5.30422 $w=1.5e-07 $l=7.5e-08 $layer=POLY_cond $X=5.03 $Y=1.135
+ $X2=4.955 $Y2=1.135
r259 16 51 20.4101 $w=1.5e-07 $l=7.5e-08 $layer=POLY_cond $X=5.24 $Y=1.135
+ $X2=5.315 $Y2=1.135
r260 16 17 107.681 $w=1.5e-07 $l=2.1e-07 $layer=POLY_cond $X=5.24 $Y=1.135
+ $X2=5.03 $Y2=1.135
r261 15 75 21.2229 $w=1.5e-07 $l=1.65e-07 $layer=POLY_cond $X=4.955 $Y=1.555
+ $X2=4.955 $Y2=1.72
r262 14 50 20.4101 $w=1.5e-07 $l=7.5e-08 $layer=POLY_cond $X=4.955 $Y=1.21
+ $X2=4.955 $Y2=1.135
r263 14 15 176.904 $w=1.5e-07 $l=3.45e-07 $layer=POLY_cond $X=4.955 $Y=1.21
+ $X2=4.955 $Y2=1.555
r264 11 50 20.4101 $w=1.5e-07 $l=7.5e-08 $layer=POLY_cond $X=4.955 $Y=1.06
+ $X2=4.955 $Y2=1.135
r265 11 13 91.58 $w=1.5e-07 $l=2.85e-07 $layer=POLY_cond $X=4.955 $Y=1.06
+ $X2=4.955 $Y2=0.775
r266 7 73 9.34494 $w=2.5e-07 $l=1.65e-07 $layer=POLY_cond $X=4.81 $Y=1.885
+ $X2=4.81 $Y2=1.72
r267 7 9 163.979 $w=2.5e-07 $l=6.6e-07 $layer=POLY_cond $X=4.81 $Y=1.885
+ $X2=4.81 $Y2=2.545
r268 2 57 400 $w=1.7e-07 $l=9.24662e-07 $layer=licon1_PDIFF $count=1 $X=3.87
+ $Y=2.045 $X2=4.015 $Y2=2.9
r269 2 55 400 $w=1.7e-07 $l=2.05061e-07 $layer=licon1_PDIFF $count=1 $X=3.87
+ $Y=2.045 $X2=4.015 $Y2=2.19
r270 1 70 182 $w=1.7e-07 $l=3.09112e-07 $layer=licon1_NDIFF $count=1 $X=3.805
+ $Y=0.565 $X2=3.95 $Y2=0.81
.ends

.subckt PM_SKY130_FD_SC_LP__SDFSBP_LP%A_2220_40# 1 2 9 11 13 17 20 21 24 31 34
+ 35
c87 13 0 2.10017e-19 $X=11.41 $Y=2.595
c88 11 0 2.21142e-20 $X=11.41 $Y=1.885
r89 34 35 8.55446 $w=3.73e-07 $l=1.65e-07 $layer=LI1_cond $X=12.827 $Y=2.185
+ $X2=12.827 $Y2=2.02
r90 26 31 0.716491 $w=1.7e-07 $l=8.5e-08 $layer=LI1_cond $X=12.725 $Y=1.37
+ $X2=12.725 $Y2=1.285
r91 26 35 42.4064 $w=1.68e-07 $l=6.5e-07 $layer=LI1_cond $X=12.725 $Y=1.37
+ $X2=12.725 $Y2=2.02
r92 22 31 25.7701 $w=1.68e-07 $l=3.95e-07 $layer=LI1_cond $X=12.33 $Y=1.285
+ $X2=12.725 $Y2=1.285
r93 22 24 24.6204 $w=3.28e-07 $l=7.05e-07 $layer=LI1_cond $X=12.33 $Y=1.2
+ $X2=12.33 $Y2=0.495
r94 20 22 10.7647 $w=1.68e-07 $l=1.65e-07 $layer=LI1_cond $X=12.165 $Y=1.285
+ $X2=12.33 $Y2=1.285
r95 20 21 25.4438 $w=1.68e-07 $l=3.9e-07 $layer=LI1_cond $X=12.165 $Y=1.285
+ $X2=11.775 $Y2=1.285
r96 17 18 72.64 $w=1.7e-07 $l=3.4e-07 $layer=licon1_POLY $count=2 $X=11.61
+ $Y=1.38 $X2=11.61 $Y2=1.38
r97 15 21 7.24806 $w=1.7e-07 $l=1.70276e-07 $layer=LI1_cond $X=11.642 $Y=1.37
+ $X2=11.775 $Y2=1.285
r98 15 17 0.434884 $w=2.63e-07 $l=1e-08 $layer=LI1_cond $X=11.642 $Y=1.37
+ $X2=11.642 $Y2=1.38
r99 11 18 58.6276 $w=5.54e-07 $l=5.18324e-07 $layer=POLY_cond $X=11.41 $Y=1.885
+ $X2=11.437 $Y2=1.38
r100 11 13 176.402 $w=2.5e-07 $l=7.1e-07 $layer=POLY_cond $X=11.41 $Y=1.885
+ $X2=11.41 $Y2=2.595
r101 7 18 43.3485 $w=5.54e-07 $l=3.34476e-07 $layer=POLY_cond $X=11.175 $Y=1.215
+ $X2=11.437 $Y2=1.38
r102 7 9 346.117 $w=1.5e-07 $l=6.75e-07 $layer=POLY_cond $X=11.175 $Y=1.215
+ $X2=11.175 $Y2=0.54
r103 2 34 300 $w=1.7e-07 $l=2.45204e-07 $layer=licon1_PDIFF $count=2 $X=12.79
+ $Y=2 $X2=12.93 $Y2=2.185
r104 1 24 182 $w=1.7e-07 $l=2.73038e-07 $layer=licon1_NDIFF $count=1 $X=12.185
+ $Y=0.285 $X2=12.33 $Y2=0.495
.ends

.subckt PM_SKY130_FD_SC_LP__SDFSBP_LP%A_2019_419# 1 2 3 12 14 15 18 22 24 26 27
+ 29 30 31 33 34 36 38 40 42 45 47 49 51 53 59 65 67 69 70 72 73 75 76 77 78 81
+ 82 85 87 88 91
c210 75 0 1.64566e-19 $X=12.335 $Y=2.285
c211 72 0 8.27582e-20 $X=11.245 $Y=2.115
c212 70 0 1.65443e-19 $X=10.655 $Y=1.035
c213 59 0 3.36421e-19 $X=15.04 $Y=0.94
r214 85 91 68.8289 $w=1.68e-07 $l=1.055e-06 $layer=LI1_cond $X=13.28 $Y=2.895
+ $X2=13.28 $Y2=1.84
r215 81 82 72.64 $w=1.7e-07 $l=3.4e-07 $layer=licon1_POLY $count=2 $X=13.155
+ $Y=1.335 $X2=13.155 $Y2=1.335
r216 79 91 9.23056 $w=3.73e-07 $l=1.87e-07 $layer=LI1_cond $X=13.177 $Y=1.653
+ $X2=13.177 $Y2=1.84
r217 79 81 9.77272 $w=3.73e-07 $l=3.18e-07 $layer=LI1_cond $X=13.177 $Y=1.653
+ $X2=13.177 $Y2=1.335
r218 77 85 6.81649 $w=1.7e-07 $l=1.20208e-07 $layer=LI1_cond $X=13.195 $Y=2.98
+ $X2=13.28 $Y2=2.895