* File: sky130_fd_sc_lp__sdfstp_2.pex.spice
* Created: Fri Aug 28 11:29:42 2020
* Program "Calibre xRC"
* Version "v2018.4_34.26"
* Nominal Temperature: 27C
* Circuit Temperature: 27C
* 
.subckt PM_SKY130_FD_SC_LP__SDFSTP_2%SCD 3 5 7 11 14 15 16 20
r33 20 21 72.64 $w=1.7e-07 $l=3.4e-07 $layer=licon1_POLY $count=2 $X=0.385
+ $Y=1.3 $X2=0.385 $Y2=1.3
r34 16 21 9.38857 $w=4.63e-07 $l=3.65e-07 $layer=LI1_cond $X=0.317 $Y=1.665
+ $X2=0.317 $Y2=1.3
r35 15 21 0.128611 $w=4.63e-07 $l=5e-09 $layer=LI1_cond $X=0.317 $Y=1.295
+ $X2=0.317 $Y2=1.3
r36 13 20 44.2071 $w=3.9e-07 $l=3.1e-07 $layer=POLY_cond $X=0.415 $Y=1.61
+ $X2=0.415 $Y2=1.3
r37 13 14 49.7341 $w=3.9e-07 $l=1.95e-07 $layer=POLY_cond $X=0.415 $Y=1.61
+ $X2=0.415 $Y2=1.805
r38 9 20 2.13905 $w=3.9e-07 $l=1.5e-08 $layer=POLY_cond $X=0.415 $Y=1.285
+ $X2=0.415 $Y2=1.3
r39 9 11 189.723 $w=1.5e-07 $l=3.7e-07 $layer=POLY_cond $X=0.415 $Y=1.21
+ $X2=0.785 $Y2=1.21
r40 5 11 2.83073 $w=1.5e-07 $l=7.5e-08 $layer=POLY_cond $X=0.785 $Y=1.135
+ $X2=0.785 $Y2=1.21
r41 5 7 102.827 $w=1.5e-07 $l=3.2e-07 $layer=POLY_cond $X=0.785 $Y=1.135
+ $X2=0.785 $Y2=0.815
r42 3 14 471.745 $w=1.5e-07 $l=9.2e-07 $layer=POLY_cond $X=0.535 $Y=2.725
+ $X2=0.535 $Y2=1.805
.ends

.subckt PM_SKY130_FD_SC_LP__SDFSTP_2%D 1 3 7 9 10 11 12 13
r42 20 21 145.28 $w=1.7e-07 $l=1.7e-07 $layer=licon1_POLY $count=1 $X=1.415
+ $Y=2.08 $X2=1.415 $Y2=2.08
r43 12 13 20.1154 $w=2.73e-07 $l=4.8e-07 $layer=LI1_cond $X=1.68 $Y=2.087
+ $X2=2.16 $Y2=2.087
r44 12 21 11.1054 $w=2.73e-07 $l=2.65e-07 $layer=LI1_cond $X=1.68 $Y=2.087
+ $X2=1.415 $Y2=2.087
r45 11 21 9.01001 $w=2.73e-07 $l=2.15e-07 $layer=LI1_cond $X=1.2 $Y=2.087
+ $X2=1.415 $Y2=2.087
r46 10 11 20.1154 $w=2.73e-07 $l=4.8e-07 $layer=LI1_cond $X=0.72 $Y=2.087
+ $X2=1.2 $Y2=2.087
r47 9 10 20.1154 $w=2.73e-07 $l=4.8e-07 $layer=LI1_cond $X=0.24 $Y=2.087
+ $X2=0.72 $Y2=2.087
r48 5 20 65.0101 $w=2.92e-07 $l=3.82426e-07 $layer=POLY_cond $X=1.575 $Y=1.755
+ $X2=1.45 $Y2=2.08
r49 5 7 482 $w=1.5e-07 $l=9.4e-07 $layer=POLY_cond $X=1.575 $Y=1.755 $X2=1.575
+ $Y2=0.815
r50 1 20 38.5991 $w=2.92e-07 $l=2.18746e-07 $layer=POLY_cond $X=1.325 $Y=2.245
+ $X2=1.45 $Y2=2.08
r51 1 3 246.128 $w=1.5e-07 $l=4.8e-07 $layer=POLY_cond $X=1.325 $Y=2.245
+ $X2=1.325 $Y2=2.725
.ends

.subckt PM_SKY130_FD_SC_LP__SDFSTP_2%A_358_429# 1 2 9 12 16 18 19 20 23 25 26 32
+ 34
r73 30 32 31.5769 $w=2.48e-07 $l=6.85e-07 $layer=LI1_cond $X=3.66 $Y=1.78
+ $X2=3.66 $Y2=2.465
r74 29 34 15.7375 $w=3.3e-07 $l=9e-08 $layer=POLY_cond $X=3.125 $Y=1.645
+ $X2=3.125 $Y2=1.555
r75 28 29 145.28 $w=1.7e-07 $l=1.7e-07 $layer=licon1_POLY $count=1 $X=3.125
+ $Y=1.645 $X2=3.125 $Y2=1.645
r76 26 28 2.00425 $w=2.28e-07 $l=4e-08 $layer=LI1_cond $X=3.085 $Y=1.665
+ $X2=3.125 $Y2=1.665
r77 25 30 6.8319 $w=2.3e-07 $l=1.73205e-07 $layer=LI1_cond $X=3.535 $Y=1.665
+ $X2=3.66 $Y2=1.78
r78 25 28 20.5435 $w=2.28e-07 $l=4.1e-07 $layer=LI1_cond $X=3.535 $Y=1.665
+ $X2=3.125 $Y2=1.665
r79 21 26 6.95328 $w=2.3e-07 $l=1.97292e-07 $layer=LI1_cond $X=2.937 $Y=1.55
+ $X2=3.085 $Y2=1.665
r80 21 23 28.7134 $w=2.93e-07 $l=7.35e-07 $layer=LI1_cond $X=2.937 $Y=1.55
+ $X2=2.937 $Y2=0.815
r81 18 19 43.7534 $w=2.2e-07 $l=1.5e-07 $layer=POLY_cond $X=1.9 $Y=2.145 $X2=1.9
+ $Y2=2.295
r82 17 20 5.30422 $w=1.5e-07 $l=7.5e-08 $layer=POLY_cond $X=2.01 $Y=1.555
+ $X2=1.935 $Y2=1.555
r83 16 34 21.2229 $w=1.5e-07 $l=1.65e-07 $layer=POLY_cond $X=2.96 $Y=1.555
+ $X2=3.125 $Y2=1.555
r84 16 17 487.128 $w=1.5e-07 $l=9.5e-07 $layer=POLY_cond $X=2.96 $Y=1.555
+ $X2=2.01 $Y2=1.555
r85 14 20 20.4101 $w=1.5e-07 $l=7.5e-08 $layer=POLY_cond $X=1.935 $Y=1.63
+ $X2=1.935 $Y2=1.555
r86 14 18 264.074 $w=1.5e-07 $l=5.15e-07 $layer=POLY_cond $X=1.935 $Y=1.63
+ $X2=1.935 $Y2=2.145
r87 10 20 20.4101 $w=1.5e-07 $l=7.5e-08 $layer=POLY_cond $X=1.935 $Y=1.48
+ $X2=1.935 $Y2=1.555
r88 10 12 340.989 $w=1.5e-07 $l=6.65e-07 $layer=POLY_cond $X=1.935 $Y=1.48
+ $X2=1.935 $Y2=0.815
r89 9 19 138.173 $w=1.5e-07 $l=4.3e-07 $layer=POLY_cond $X=1.865 $Y=2.725
+ $X2=1.865 $Y2=2.295
r90 2 32 600 $w=1.7e-07 $l=2.13834e-07 $layer=licon1_PDIFF $count=1 $X=3.48
+ $Y=2.31 $X2=3.62 $Y2=2.465
r91 1 23 182 $w=1.7e-07 $l=2.71109e-07 $layer=licon1_NDIFF $count=1 $X=2.78
+ $Y=0.605 $X2=2.92 $Y2=0.815
.ends

.subckt PM_SKY130_FD_SC_LP__SDFSTP_2%SCE 3 8 9 10 13 15 17 19 21 24 26 29 33 34
+ 35 36 41 42
c85 13 0 6.49935e-20 $X=2.705 $Y=0.815
r86 41 42 72.64 $w=1.7e-07 $l=3.4e-07 $layer=licon1_POLY $count=2 $X=3.6 $Y=0.43
+ $X2=3.6 $Y2=0.43
r87 35 36 12.9213 $w=3.28e-07 $l=3.7e-07 $layer=LI1_cond $X=3.6 $Y=0.925 $X2=3.6
+ $Y2=1.295
r88 34 35 12.9213 $w=3.28e-07 $l=3.7e-07 $layer=LI1_cond $X=3.6 $Y=0.555 $X2=3.6
+ $Y2=0.925
r89 34 42 4.36531 $w=3.28e-07 $l=1.25e-07 $layer=LI1_cond $X=3.6 $Y=0.555
+ $X2=3.6 $Y2=0.43
r90 32 41 59.4528 $w=3.3e-07 $l=3.4e-07 $layer=POLY_cond $X=3.6 $Y=0.77 $X2=3.6
+ $Y2=0.43
r91 32 33 46.2115 $w=3.3e-07 $l=1.65e-07 $layer=POLY_cond $X=3.6 $Y=0.77 $X2=3.6
+ $Y2=0.935
r92 31 41 28.8521 $w=3.3e-07 $l=1.65e-07 $layer=POLY_cond $X=3.6 $Y=0.265
+ $X2=3.6 $Y2=0.43
r93 27 29 146.138 $w=1.5e-07 $l=2.85e-07 $layer=POLY_cond $X=3.405 $Y=2.125
+ $X2=3.69 $Y2=2.125
r94 22 24 92.2979 $w=1.5e-07 $l=1.8e-07 $layer=POLY_cond $X=0.965 $Y=1.6
+ $X2=1.145 $Y2=1.6
r95 21 29 2.83073 $w=1.5e-07 $l=7.5e-08 $layer=POLY_cond $X=3.69 $Y=2.05
+ $X2=3.69 $Y2=2.125
r96 21 33 571.734 $w=1.5e-07 $l=1.115e-06 $layer=POLY_cond $X=3.69 $Y=2.05
+ $X2=3.69 $Y2=0.935
r97 17 27 2.83073 $w=1.5e-07 $l=7.5e-08 $layer=POLY_cond $X=3.405 $Y=2.2
+ $X2=3.405 $Y2=2.125
r98 17 19 138.173 $w=1.5e-07 $l=4.3e-07 $layer=POLY_cond $X=3.405 $Y=2.2
+ $X2=3.405 $Y2=2.63
r99 16 26 20.4101 $w=1.5e-07 $l=7.5e-08 $layer=POLY_cond $X=2.78 $Y=0.19
+ $X2=2.705 $Y2=0.19
r100 15 31 32.1775 $w=1.5e-07 $l=1.98997e-07 $layer=POLY_cond $X=3.435 $Y=0.19
+ $X2=3.6 $Y2=0.265
r101 15 16 335.862 $w=1.5e-07 $l=6.55e-07 $layer=POLY_cond $X=3.435 $Y=0.19
+ $X2=2.78 $Y2=0.19
r102 11 26 5.30422 $w=1.5e-07 $l=7.5e-08 $layer=POLY_cond $X=2.705 $Y=0.265
+ $X2=2.705 $Y2=0.19
r103 11 13 282.021 $w=1.5e-07 $l=5.5e-07 $layer=POLY_cond $X=2.705 $Y=0.265
+ $X2=2.705 $Y2=0.815
r104 9 26 20.4101 $w=1.5e-07 $l=7.5e-08 $layer=POLY_cond $X=2.63 $Y=0.19
+ $X2=2.705 $Y2=0.19
r105 9 10 723 $w=1.5e-07 $l=1.41e-06 $layer=POLY_cond $X=2.63 $Y=0.19 $X2=1.22
+ $Y2=0.19
r106 6 24 2.83073 $w=1.5e-07 $l=7.5e-08 $layer=POLY_cond $X=1.145 $Y=1.525
+ $X2=1.145 $Y2=1.6
r107 6 8 364.064 $w=1.5e-07 $l=7.1e-07 $layer=POLY_cond $X=1.145 $Y=1.525
+ $X2=1.145 $Y2=0.815
r108 5 10 26.9307 $w=1.5e-07 $l=1.06066e-07 $layer=POLY_cond $X=1.145 $Y=0.265
+ $X2=1.22 $Y2=0.19
r109 5 8 282.021 $w=1.5e-07 $l=5.5e-07 $layer=POLY_cond $X=1.145 $Y=0.265
+ $X2=1.145 $Y2=0.815
r110 1 22 2.83073 $w=1.5e-07 $l=7.5e-08 $layer=POLY_cond $X=0.965 $Y=1.675
+ $X2=0.965 $Y2=1.6
r111 1 3 538.404 $w=1.5e-07 $l=1.05e-06 $layer=POLY_cond $X=0.965 $Y=1.675
+ $X2=0.965 $Y2=2.725
.ends

.subckt PM_SKY130_FD_SC_LP__SDFSTP_2%CLK 3 7 11 12 13 14 15 20
c40 11 0 1.4009e-19 $X=4.4 $Y=1.66
r41 20 21 72.64 $w=1.7e-07 $l=3.4e-07 $layer=licon1_POLY $count=2 $X=4.4 $Y=1.32
+ $X2=4.4 $Y2=1.32
r42 15 21 10.463 $w=3.78e-07 $l=3.45e-07 $layer=LI1_cond $X=4.495 $Y=1.665
+ $X2=4.495 $Y2=1.32
r43 14 21 0.758186 $w=3.78e-07 $l=2.5e-08 $layer=LI1_cond $X=4.495 $Y=1.295
+ $X2=4.495 $Y2=1.32
r44 13 14 11.2212 $w=3.78e-07 $l=3.7e-07 $layer=LI1_cond $X=4.495 $Y=0.925
+ $X2=4.495 $Y2=1.295
r45 11 20 59.4528 $w=3.3e-07 $l=3.4e-07 $layer=POLY_cond $X=4.4 $Y=1.66 $X2=4.4
+ $Y2=1.32
r46 11 12 40.8701 $w=3.3e-07 $l=1.65e-07 $layer=POLY_cond $X=4.4 $Y=1.66 $X2=4.4
+ $Y2=1.825
r47 10 20 46.2115 $w=3.3e-07 $l=1.65e-07 $layer=POLY_cond $X=4.4 $Y=1.155
+ $X2=4.4 $Y2=1.32
r48 7 12 466.617 $w=1.5e-07 $l=9.1e-07 $layer=POLY_cond $X=4.45 $Y=2.735
+ $X2=4.45 $Y2=1.825
r49 3 10 364.064 $w=1.5e-07 $l=7.1e-07 $layer=POLY_cond $X=4.31 $Y=0.445
+ $X2=4.31 $Y2=1.155
.ends

.subckt PM_SKY130_FD_SC_LP__SDFSTP_2%A_963_47# 1 2 9 13 17 21 23 27 32 33 36 37
+ 38 40 41 42 44 45 46 47 53 55 57 58 65 70
c176 70 0 1.91871e-19 $X=9.95 $Y=1.93
c177 58 0 1.62957e-19 $X=9.76 $Y=1.82
c178 53 0 1.4273e-19 $X=5.995 $Y=1.54
c179 46 0 6.69659e-20 $X=8.35 $Y=1.82
c180 42 0 1.47232e-19 $X=7.65 $Y=2.65
r181 69 70 6.12014 $w=3.3e-07 $l=3.5e-08 $layer=POLY_cond $X=9.915 $Y=1.93
+ $X2=9.95 $Y2=1.93
r182 65 66 53.4108 $w=3.7e-07 $l=4.1e-07 $layer=POLY_cond $X=6.13 $Y=1.41
+ $X2=6.54 $Y2=1.41
r183 62 69 24.4806 $w=3.3e-07 $l=1.4e-07 $layer=POLY_cond $X=9.775 $Y=1.93
+ $X2=9.915 $Y2=1.93
r184 61 62 145.28 $w=1.7e-07 $l=1.7e-07 $layer=licon1_POLY $count=1 $X=9.775
+ $Y=1.93 $X2=9.775 $Y2=1.93
r185 58 61 4.22562 $w=2.98e-07 $l=1.1e-07 $layer=LI1_cond $X=9.76 $Y=1.82
+ $X2=9.76 $Y2=1.93
r186 54 65 17.5865 $w=3.7e-07 $l=1.35e-07 $layer=POLY_cond $X=5.995 $Y=1.41
+ $X2=6.13 $Y2=1.41
r187 53 56 8.97179 $w=2.08e-07 $l=1.65e-07 $layer=LI1_cond $X=5.985 $Y=1.54
+ $X2=5.985 $Y2=1.705
r188 53 55 8.83798 $w=2.08e-07 $l=1.65e-07 $layer=LI1_cond $X=5.985 $Y=1.54
+ $X2=5.985 $Y2=1.375
r189 53 54 145.28 $w=1.7e-07 $l=1.7e-07 $layer=licon1_POLY $count=1 $X=5.995
+ $Y=1.54 $X2=5.995 $Y2=1.54
r190 47 50 4.10192 $w=2.93e-07 $l=1.05e-07 $layer=LI1_cond $X=4.972 $Y=0.34
+ $X2=4.972 $Y2=0.445
r191 45 58 4.061 $w=1.7e-07 $l=1.5e-07 $layer=LI1_cond $X=9.61 $Y=1.82 $X2=9.76
+ $Y2=1.82
r192 45 46 82.2032 $w=1.68e-07 $l=1.26e-06 $layer=LI1_cond $X=9.61 $Y=1.82
+ $X2=8.35 $Y2=1.82
r193 43 46 6.81649 $w=1.7e-07 $l=1.20208e-07 $layer=LI1_cond $X=8.265 $Y=1.905
+ $X2=8.35 $Y2=1.82
r194 43 44 43.0588 $w=1.68e-07 $l=6.6e-07 $layer=LI1_cond $X=8.265 $Y=1.905
+ $X2=8.265 $Y2=2.565
r195 41 44 6.81649 $w=1.7e-07 $l=1.20208e-07 $layer=LI1_cond $X=8.18 $Y=2.65
+ $X2=8.265 $Y2=2.565
r196 41 42 34.5775 $w=1.68e-07 $l=5.3e-07 $layer=LI1_cond $X=8.18 $Y=2.65
+ $X2=7.65 $Y2=2.65
r197 40 42 6.81649 $w=1.7e-07 $l=1.20208e-07 $layer=LI1_cond $X=7.565 $Y=2.565
+ $X2=7.65 $Y2=2.65
r198 39 40 30.0107 $w=1.68e-07 $l=4.6e-07 $layer=LI1_cond $X=7.565 $Y=2.105
+ $X2=7.565 $Y2=2.565
r199 37 39 6.81649 $w=1.7e-07 $l=1.20208e-07 $layer=LI1_cond $X=7.48 $Y=2.02
+ $X2=7.565 $Y2=2.105
r200 37 38 45.016 $w=1.68e-07 $l=6.9e-07 $layer=LI1_cond $X=7.48 $Y=2.02
+ $X2=6.79 $Y2=2.02
r201 35 38 6.81649 $w=1.7e-07 $l=1.20208e-07 $layer=LI1_cond $X=6.705 $Y=2.105
+ $X2=6.79 $Y2=2.02
r202 35 36 39.1444 $w=1.68e-07 $l=6e-07 $layer=LI1_cond $X=6.705 $Y=2.105
+ $X2=6.705 $Y2=2.705
r203 34 57 3.0419 $w=3.3e-07 $l=9e-08 $layer=LI1_cond $X=6.09 $Y=2.87 $X2=6
+ $Y2=2.87
r204 33 36 7.76618 $w=3.3e-07 $l=2.03101e-07 $layer=LI1_cond $X=6.62 $Y=2.87
+ $X2=6.705 $Y2=2.705
r205 33 34 18.5089 $w=3.28e-07 $l=5.3e-07 $layer=LI1_cond $X=6.62 $Y=2.87
+ $X2=6.09 $Y2=2.87
r206 32 57 3.59259 $w=1.8e-07 $l=1.65e-07 $layer=LI1_cond $X=6 $Y=2.705 $X2=6
+ $Y2=2.87
r207 32 56 61.6162 $w=1.78e-07 $l=1e-06 $layer=LI1_cond $X=6 $Y=2.705 $X2=6
+ $Y2=1.705
r208 29 55 55.4545 $w=1.88e-07 $l=9.5e-07 $layer=LI1_cond $X=5.975 $Y=0.425
+ $X2=5.975 $Y2=1.375
r209 28 47 3.96227 $w=1.7e-07 $l=1.48e-07 $layer=LI1_cond $X=5.12 $Y=0.34
+ $X2=4.972 $Y2=0.34
r210 27 29 6.84389 $w=1.7e-07 $l=1.30767e-07 $layer=LI1_cond $X=5.88 $Y=0.34
+ $X2=5.975 $Y2=0.425
r211 27 28 49.5829 $w=1.68e-07 $l=7.6e-07 $layer=LI1_cond $X=5.88 $Y=0.34
+ $X2=5.12 $Y2=0.34
r212 23 57 3.0419 $w=3.3e-07 $l=9e-08 $layer=LI1_cond $X=5.91 $Y=2.87 $X2=6
+ $Y2=2.87
r213 23 25 28.4618 $w=3.28e-07 $l=8.15e-07 $layer=LI1_cond $X=5.91 $Y=2.87
+ $X2=5.095 $Y2=2.87
r214 19 70 21.2229 $w=1.5e-07 $l=1.65e-07 $layer=POLY_cond $X=9.95 $Y=1.765
+ $X2=9.95 $Y2=1.93
r215 19 21 420.468 $w=1.5e-07 $l=8.2e-07 $layer=POLY_cond $X=9.95 $Y=1.765
+ $X2=9.95 $Y2=0.945
r216 15 69 21.2229 $w=1.5e-07 $l=1.65e-07 $layer=POLY_cond $X=9.915 $Y=2.095
+ $X2=9.915 $Y2=1.93
r217 15 17 220.489 $w=1.5e-07 $l=4.3e-07 $layer=POLY_cond $X=9.915 $Y=2.095
+ $X2=9.915 $Y2=2.525
r218 11 66 23.9667 $w=1.5e-07 $l=2.95e-07 $layer=POLY_cond $X=6.54 $Y=1.115
+ $X2=6.54 $Y2=1.41
r219 11 13 323.043 $w=1.5e-07 $l=6.3e-07 $layer=POLY_cond $X=6.54 $Y=1.115
+ $X2=6.54 $Y2=0.485
r220 7 65 23.9667 $w=1.5e-07 $l=2.95e-07 $layer=POLY_cond $X=6.13 $Y=1.705
+ $X2=6.13 $Y2=1.41
r221 7 9 297.404 $w=1.5e-07 $l=5.8e-07 $layer=POLY_cond $X=6.13 $Y=1.705
+ $X2=6.13 $Y2=2.285
r222 2 25 600 $w=1.7e-07 $l=5.20312e-07 $layer=licon1_PDIFF $count=1 $X=4.955
+ $Y=2.415 $X2=5.095 $Y2=2.87
r223 1 50 182 $w=1.7e-07 $l=2.71109e-07 $layer=licon1_NDIFF $count=1 $X=4.815
+ $Y=0.235 $X2=4.955 $Y2=0.445
.ends

.subckt PM_SKY130_FD_SC_LP__SDFSTP_2%A_1365_29# 1 2 9 14 18 21 23 26 30 33 36
c61 18 0 9.66906e-20 $X=6.99 $Y=0.97
c62 14 0 2.25861e-19 $X=6.92 $Y=2.285
r63 34 36 189.723 $w=1.5e-07 $l=3.7e-07 $layer=POLY_cond $X=6.92 $Y=1.135
+ $X2=6.92 $Y2=1.505
r64 28 30 26.5598 $w=1.88e-07 $l=4.55e-07 $layer=LI1_cond $X=7.915 $Y=1.765
+ $X2=7.915 $Y2=2.22
r65 26 37 46.2115 $w=3.3e-07 $l=1.65e-07 $layer=POLY_cond $X=7.01 $Y=1.67
+ $X2=7.01 $Y2=1.835
r66 26 36 46.2115 $w=3.3e-07 $l=1.65e-07 $layer=POLY_cond $X=7.01 $Y=1.67
+ $X2=7.01 $Y2=1.505
r67 25 26 145.28 $w=1.7e-07 $l=1.7e-07 $layer=licon1_POLY $count=1 $X=7.01
+ $Y=1.67 $X2=7.01 $Y2=1.67
r68 23 28 6.82297 $w=1.8e-07 $l=1.32571e-07 $layer=LI1_cond $X=7.82 $Y=1.675
+ $X2=7.915 $Y2=1.765
r69 23 25 49.9091 $w=1.78e-07 $l=8.1e-07 $layer=LI1_cond $X=7.82 $Y=1.675
+ $X2=7.01 $Y2=1.675
r70 18 34 46.2115 $w=3.3e-07 $l=1.65e-07 $layer=POLY_cond $X=6.99 $Y=0.97
+ $X2=6.99 $Y2=1.135
r71 18 33 46.2115 $w=3.3e-07 $l=1.65e-07 $layer=POLY_cond $X=6.99 $Y=0.97
+ $X2=6.99 $Y2=0.805
r72 17 21 25.1442 $w=3.28e-07 $l=7.2e-07 $layer=LI1_cond $X=6.99 $Y=0.89
+ $X2=7.71 $Y2=0.89
r73 17 18 145.28 $w=1.7e-07 $l=1.7e-07 $layer=licon1_POLY $count=1 $X=6.99
+ $Y=0.97 $X2=6.99 $Y2=0.97
r74 14 37 230.745 $w=1.5e-07 $l=4.5e-07 $layer=POLY_cond $X=6.92 $Y=2.285
+ $X2=6.92 $Y2=1.835
r75 9 33 102.827 $w=1.5e-07 $l=3.2e-07 $layer=POLY_cond $X=6.9 $Y=0.485 $X2=6.9
+ $Y2=0.805
r76 2 30 600 $w=1.7e-07 $l=2.03286e-07 $layer=licon1_PDIFF $count=1 $X=7.775
+ $Y=2.075 $X2=7.915 $Y2=2.22
r77 1 21 182 $w=1.7e-07 $l=3.21481e-07 $layer=licon1_NDIFF $count=1 $X=7.585
+ $Y=0.625 $X2=7.71 $Y2=0.89
.ends

.subckt PM_SKY130_FD_SC_LP__SDFSTP_2%A_1237_55# 1 2 9 11 13 16 18 20 22 25 28 31
+ 36 38 41 42 49
c96 41 0 1.80425e-19 $X=6.335 $Y=0.715
c97 31 0 7.86288e-20 $X=6.345 $Y=2.22
c98 28 0 9.66906e-20 $X=6.345 $Y=1.225
c99 11 0 1.35218e-19 $X=7.965 $Y=1.155
c100 9 0 6.69659e-20 $X=7.7 $Y=2.285
r101 39 49 46.7569 $w=3.7e-07 $l=1.65e-07 $layer=POLY_cond $X=8.92 $Y=1.34
+ $X2=9.085 $Y2=1.34
r102 39 46 14.0362 $w=3.7e-07 $l=9e-08 $layer=POLY_cond $X=8.92 $Y=1.34 $X2=8.83
+ $Y2=1.34
r103 38 39 145.28 $w=1.7e-07 $l=1.7e-07 $layer=licon1_POLY $count=1 $X=8.92
+ $Y=1.32 $X2=8.92 $Y2=1.32
r104 36 43 7.77419 $w=2.79e-07 $l=4.5e-08 $layer=POLY_cond $X=7.745 $Y=1.32
+ $X2=7.7 $Y2=1.32
r105 35 38 68.5885 $w=1.88e-07 $l=1.175e-06 $layer=LI1_cond $X=7.745 $Y=1.32
+ $X2=8.92 $Y2=1.32
r106 35 36 145.28 $w=1.7e-07 $l=1.7e-07 $layer=licon1_POLY $count=1 $X=7.745
+ $Y=1.32 $X2=7.745 $Y2=1.32
r107 33 42 1.14861 $w=1.9e-07 $l=9.5e-08 $layer=LI1_cond $X=6.45 $Y=1.32
+ $X2=6.355 $Y2=1.32
r108 33 35 75.5933 $w=1.88e-07 $l=1.295e-06 $layer=LI1_cond $X=6.45 $Y=1.32
+ $X2=7.745 $Y2=1.32
r109 29 42 5.40251 $w=1.8e-07 $l=9.5e-08 $layer=LI1_cond $X=6.355 $Y=1.415
+ $X2=6.355 $Y2=1.32
r110 29 31 46.9904 $w=1.88e-07 $l=8.05e-07 $layer=LI1_cond $X=6.355 $Y=1.415
+ $X2=6.355 $Y2=2.22
r111 28 42 5.40251 $w=1.8e-07 $l=9.98749e-08 $layer=LI1_cond $X=6.345 $Y=1.225
+ $X2=6.355 $Y2=1.32
r112 28 41 33.2727 $w=1.68e-07 $l=5.1e-07 $layer=LI1_cond $X=6.345 $Y=1.225
+ $X2=6.345 $Y2=0.715
r113 23 41 5.69365 $w=1.88e-07 $l=9.5e-08 $layer=LI1_cond $X=6.335 $Y=0.62
+ $X2=6.335 $Y2=0.715
r114 23 25 7.58852 $w=1.88e-07 $l=1.3e-07 $layer=LI1_cond $X=6.335 $Y=0.62
+ $X2=6.335 $Y2=0.49
r115 20 22 138.173 $w=1.5e-07 $l=4.3e-07 $layer=POLY_cond $X=9.59 $Y=1.375
+ $X2=9.59 $Y2=0.945
r116 18 20 26.9307 $w=1.5e-07 $l=1.06066e-07 $layer=POLY_cond $X=9.515 $Y=1.45
+ $X2=9.59 $Y2=1.375
r117 18 49 220.489 $w=1.5e-07 $l=4.3e-07 $layer=POLY_cond $X=9.515 $Y=1.45
+ $X2=9.085 $Y2=1.45
r118 14 46 23.9667 $w=1.5e-07 $l=1.85e-07 $layer=POLY_cond $X=8.83 $Y=1.525
+ $X2=8.83 $Y2=1.34
r119 14 16 405.085 $w=1.5e-07 $l=7.9e-07 $layer=POLY_cond $X=8.83 $Y=1.525
+ $X2=8.83 $Y2=2.315
r120 11 36 38.0072 $w=2.79e-07 $l=2.91033e-07 $layer=POLY_cond $X=7.965 $Y=1.155
+ $X2=7.745 $Y2=1.32
r121 11 13 102.827 $w=1.5e-07 $l=3.2e-07 $layer=POLY_cond $X=7.965 $Y=1.155
+ $X2=7.965 $Y2=0.835
r122 7 43 17.2686 $w=1.5e-07 $l=1.65e-07 $layer=POLY_cond $X=7.7 $Y=1.485
+ $X2=7.7 $Y2=1.32
r123 7 9 410.213 $w=1.5e-07 $l=8e-07 $layer=POLY_cond $X=7.7 $Y=1.485 $X2=7.7
+ $Y2=2.285
r124 2 31 600 $w=1.7e-07 $l=2.03286e-07 $layer=licon1_PDIFF $count=1 $X=6.205
+ $Y=2.075 $X2=6.345 $Y2=2.22
r125 1 25 182 $w=1.7e-07 $l=2.7627e-07 $layer=licon1_NDIFF $count=1 $X=6.185
+ $Y=0.275 $X2=6.325 $Y2=0.49
.ends

.subckt PM_SKY130_FD_SC_LP__SDFSTP_2%SET_B 3 8 11 13 15 19 22 23 25 28 29 30 31
+ 32 41 45
c96 45 0 1.35218e-19 $X=9.738 $Y=0.452
c97 28 0 1.62831e-19 $X=10.87 $Y=0.382
c98 25 0 1.6681e-19 $X=11.925 $Y=1.67
c99 23 0 1.40857e-19 $X=11.04 $Y=1.675
r100 41 42 145.28 $w=1.7e-07 $l=1.7e-07 $layer=licon1_POLY $count=1 $X=8.48
+ $Y=0.35 $X2=8.48 $Y2=0.35
r101 38 41 27.1035 $w=3.3e-07 $l=1.55e-07 $layer=POLY_cond $X=8.325 $Y=0.35
+ $X2=8.48 $Y2=0.35
r102 32 45 3.13464 $w=3.73e-07 $l=1.02e-07 $layer=LI1_cond $X=9.84 $Y=0.452
+ $X2=9.738 $Y2=0.452
r103 31 45 11.6166 $w=3.73e-07 $l=3.78e-07 $layer=LI1_cond $X=9.36 $Y=0.452
+ $X2=9.738 $Y2=0.452
r104 30 31 14.7513 $w=3.73e-07 $l=4.8e-07 $layer=LI1_cond $X=8.88 $Y=0.452
+ $X2=9.36 $Y2=0.452
r105 30 42 12.2927 $w=3.73e-07 $l=4e-07 $layer=LI1_cond $X=8.88 $Y=0.452
+ $X2=8.48 $Y2=0.452
r106 29 42 2.45854 $w=3.73e-07 $l=8e-08 $layer=LI1_cond $X=8.4 $Y=0.452 $X2=8.48
+ $Y2=0.452
r107 28 32 41.2722 $w=2.63e-07 $l=9.45e-07 $layer=LI1_cond $X=10.87 $Y=0.382
+ $X2=9.925 $Y2=0.382
r108 25 26 145.28 $w=1.7e-07 $l=1.7e-07 $layer=licon1_POLY $count=1 $X=11.925
+ $Y=1.67 $X2=11.925 $Y2=1.67
r109 23 25 54.5303 $w=1.78e-07 $l=8.85e-07 $layer=LI1_cond $X=11.04 $Y=1.675
+ $X2=11.925 $Y2=1.675
r110 22 23 6.82373 $w=1.8e-07 $l=1.25499e-07 $layer=LI1_cond $X=10.955 $Y=1.585
+ $X2=11.04 $Y2=1.675
r111 21 28 7.04737 $w=2.35e-07 $l=1.54771e-07 $layer=LI1_cond $X=10.955 $Y=0.5
+ $X2=10.87 $Y2=0.382
r112 21 22 70.7861 $w=1.68e-07 $l=1.085e-06 $layer=LI1_cond $X=10.955 $Y=0.5
+ $X2=10.955 $Y2=1.585
r113 17 19 51.2766 $w=1.5e-07 $l=1e-07 $layer=POLY_cond $X=8.225 $Y=1.62
+ $X2=8.325 $Y2=1.62
r114 13 26 38.7444 $w=2.79e-07 $l=1.90526e-07 $layer=POLY_cond $X=11.87 $Y=1.835
+ $X2=11.925 $Y2=1.67
r115 13 15 282.021 $w=1.5e-07 $l=5.5e-07 $layer=POLY_cond $X=11.87 $Y=1.835
+ $X2=11.87 $Y2=2.385
r116 9 26 68.1135 $w=2.79e-07 $l=3.77326e-07 $layer=POLY_cond $X=11.835 $Y=1.335
+ $X2=11.925 $Y2=1.67
r117 9 11 256.383 $w=1.5e-07 $l=5e-07 $layer=POLY_cond $X=11.835 $Y=1.335
+ $X2=11.835 $Y2=0.835
r118 6 19 2.83073 $w=1.5e-07 $l=7.5e-08 $layer=POLY_cond $X=8.325 $Y=1.545
+ $X2=8.325 $Y2=1.62
r119 6 8 364.064 $w=1.5e-07 $l=7.1e-07 $layer=POLY_cond $X=8.325 $Y=1.545
+ $X2=8.325 $Y2=0.835
r120 5 38 21.2229 $w=1.5e-07 $l=1.65e-07 $layer=POLY_cond $X=8.325 $Y=0.515
+ $X2=8.325 $Y2=0.35
r121 5 8 164.085 $w=1.5e-07 $l=3.2e-07 $layer=POLY_cond $X=8.325 $Y=0.515
+ $X2=8.325 $Y2=0.835
r122 1 17 2.83073 $w=1.5e-07 $l=7.5e-08 $layer=POLY_cond $X=8.225 $Y=1.695
+ $X2=8.225 $Y2=1.62
r123 1 3 210.234 $w=1.5e-07 $l=4.1e-07 $layer=POLY_cond $X=8.225 $Y=1.695
+ $X2=8.225 $Y2=2.105
.ends

.subckt PM_SKY130_FD_SC_LP__SDFSTP_2%A_794_47# 1 2 7 9 12 15 16 18 19 22 26 28
+ 30 32 35 38 39 41 43 46 47 49 51 52 55 62 65
c169 47 0 3.09915e-20 $X=4.855 $Y=2.09
c170 43 0 1.62957e-19 $X=10.72 $Y=1.755
c171 22 0 1.80425e-19 $X=6.11 $Y=0.485
c172 16 0 1.4273e-19 $X=6.035 $Y=1.06
c173 12 0 1.88293e-19 $X=4.88 $Y=2.735
r174 65 66 12.9577 $w=6.4e-07 $layer=POLY_cond $X=5.125 $Y=2.09 $X2=5.125
+ $Y2=2.09
r175 64 65 145.28 $w=1.7e-07 $l=1.7e-07 $layer=licon1_POLY $count=1 $X=4.97
+ $Y=2.09 $X2=4.97 $Y2=2.09
r176 61 62 7.81899 $w=3.28e-07 $l=1.65e-07 $layer=LI1_cond $X=4.14 $Y=2.16
+ $X2=4.305 $Y2=2.16
r177 58 61 3.14303 $w=3.28e-07 $l=9e-08 $layer=LI1_cond $X=4.05 $Y=2.16 $X2=4.14
+ $Y2=2.16
r178 55 57 8.65224 $w=2.63e-07 $l=1.65e-07 $layer=LI1_cond $X=4.097 $Y=0.445
+ $X2=4.097 $Y2=0.61
r179 52 66 43.8891 $w=6.4e-07 $l=6.8e-07 $layer=POLY_cond $X=5.125 $Y=1.41
+ $X2=5.125 $Y2=2.09
r180 51 52 72.64 $w=1.7e-07 $l=3.4e-07 $layer=licon1_POLY $count=2 $X=4.97
+ $Y=1.41 $X2=4.97 $Y2=1.41
r181 49 64 2.88909 $w=2.8e-07 $l=9.5e-08 $layer=LI1_cond $X=4.995 $Y=1.995
+ $X2=4.995 $Y2=2.09
r182 49 51 24.0778 $w=2.78e-07 $l=5.85e-07 $layer=LI1_cond $X=4.995 $Y=1.995
+ $X2=4.995 $Y2=1.41
r183 47 64 4.25761 $w=1.9e-07 $l=1.4e-07 $layer=LI1_cond $X=4.855 $Y=2.09
+ $X2=4.995 $Y2=2.09
r184 47 62 32.1053 $w=1.88e-07 $l=5.5e-07 $layer=LI1_cond $X=4.855 $Y=2.09
+ $X2=4.305 $Y2=2.09
r185 46 58 4.62375 $w=1.7e-07 $l=1.65e-07 $layer=LI1_cond $X=4.05 $Y=1.995
+ $X2=4.05 $Y2=2.16
r186 46 57 90.3583 $w=1.68e-07 $l=1.385e-06 $layer=LI1_cond $X=4.05 $Y=1.995
+ $X2=4.05 $Y2=0.61
r187 43 44 64.8304 $w=1.71e-07 $l=2.3e-07 $layer=POLY_cond $X=10.72 $Y=1.755
+ $X2=10.95 $Y2=1.755
r188 39 52 22.9895 $w=6.4e-07 $l=2.75e-07 $layer=POLY_cond $X=5.125 $Y=1.135
+ $X2=5.125 $Y2=1.41
r189 39 40 12.1186 $w=6.4e-07 $l=1.06066e-07 $layer=POLY_cond $X=5.125 $Y=1.135
+ $X2=5.2 $Y2=1.06
r190 37 44 5.94057 $w=1.5e-07 $l=1.2e-07 $layer=POLY_cond $X=10.95 $Y=1.875
+ $X2=10.95 $Y2=1.755
r191 37 38 615.319 $w=1.5e-07 $l=1.2e-06 $layer=POLY_cond $X=10.95 $Y=1.875
+ $X2=10.95 $Y2=3.075
r192 33 43 5.94057 $w=1.5e-07 $l=1.2e-07 $layer=POLY_cond $X=10.72 $Y=1.635
+ $X2=10.72 $Y2=1.755
r193 33 35 410.213 $w=1.5e-07 $l=8e-07 $layer=POLY_cond $X=10.72 $Y=1.635
+ $X2=10.72 $Y2=0.835
r194 30 43 73.2866 $w=1.71e-07 $l=2.6e-07 $layer=POLY_cond $X=10.46 $Y=1.755
+ $X2=10.72 $Y2=1.755
r195 30 32 170.307 $w=1.5e-07 $l=5.3e-07 $layer=POLY_cond $X=10.46 $Y=1.785
+ $X2=10.46 $Y2=2.315
r196 29 41 20.4101 $w=1.5e-07 $l=7.5e-08 $layer=POLY_cond $X=6.635 $Y=3.15
+ $X2=6.56 $Y2=3.15
r197 28 38 26.9307 $w=1.5e-07 $l=1.06066e-07 $layer=POLY_cond $X=10.875 $Y=3.15
+ $X2=10.95 $Y2=3.075
r198 28 29 2174.13 $w=1.5e-07 $l=4.24e-06 $layer=POLY_cond $X=10.875 $Y=3.15
+ $X2=6.635 $Y2=3.15
r199 24 41 5.30422 $w=1.5e-07 $l=7.5e-08 $layer=POLY_cond $X=6.56 $Y=3.075
+ $X2=6.56 $Y2=3.15
r200 24 26 405.085 $w=1.5e-07 $l=7.9e-07 $layer=POLY_cond $X=6.56 $Y=3.075
+ $X2=6.56 $Y2=2.285
r201 20 22 256.383 $w=1.5e-07 $l=5e-07 $layer=POLY_cond $X=6.11 $Y=0.985
+ $X2=6.11 $Y2=0.485
r202 18 41 20.4101 $w=1.5e-07 $l=7.5e-08 $layer=POLY_cond $X=6.485 $Y=3.15
+ $X2=6.56 $Y2=3.15
r203 18 19 533.277 $w=1.5e-07 $l=1.04e-06 $layer=POLY_cond $X=6.485 $Y=3.15
+ $X2=5.445 $Y2=3.15
r204 17 40 26.1659 $w=1.5e-07 $l=2.45e-07 $layer=POLY_cond $X=5.445 $Y=1.06
+ $X2=5.2 $Y2=1.06
r205 16 20 26.9307 $w=1.5e-07 $l=1.06066e-07 $layer=POLY_cond $X=6.035 $Y=1.06
+ $X2=6.11 $Y2=0.985
r206 16 17 302.532 $w=1.5e-07 $l=5.9e-07 $layer=POLY_cond $X=6.035 $Y=1.06
+ $X2=5.445 $Y2=1.06
r207 15 19 26.9307 $w=1.5e-07 $l=1.06066e-07 $layer=POLY_cond $X=5.37 $Y=3.075
+ $X2=5.445 $Y2=3.15
r208 14 65 28.0482 $w=3.2e-07 $l=3.16938e-07 $layer=POLY_cond $X=5.37 $Y=2.255
+ $X2=5.125 $Y2=2.09
r209 14 15 420.468 $w=1.5e-07 $l=8.2e-07 $layer=POLY_cond $X=5.37 $Y=2.255
+ $X2=5.37 $Y2=3.075
r210 10 65 28.0482 $w=3.2e-07 $l=3.16938e-07 $layer=POLY_cond $X=4.88 $Y=2.255
+ $X2=5.125 $Y2=2.09
r211 10 12 246.128 $w=1.5e-07 $l=4.8e-07 $layer=POLY_cond $X=4.88 $Y=2.255
+ $X2=4.88 $Y2=2.735
r212 7 40 55.1563 $w=4.05e-07 $l=5.89322e-07 $layer=POLY_cond $X=4.74 $Y=0.765
+ $X2=5.2 $Y2=1.06
r213 7 9 102.827 $w=1.5e-07 $l=3.2e-07 $layer=POLY_cond $X=4.74 $Y=0.765
+ $X2=4.74 $Y2=0.445
r214 2 61 600 $w=1.7e-07 $l=1.97864e-07 $layer=licon1_PDIFF $count=1 $X=4.015
+ $Y=2.085 $X2=4.14 $Y2=2.23
r215 1 55 182 $w=1.7e-07 $l=2.65236e-07 $layer=licon1_NDIFF $count=1 $X=3.97
+ $Y=0.235 $X2=4.095 $Y2=0.445
.ends

.subckt PM_SKY130_FD_SC_LP__SDFSTP_2%A_2214_99# 1 2 7 9 12 14 17 21 23 25
c62 12 0 1.75145e-19 $X=11.44 $Y=2.385
c63 7 0 1.62831e-19 $X=11.145 $Y=1.155
r64 23 25 51.6465 $w=2.68e-07 $l=1.21e-06 $layer=LI1_cond $X=13.065 $Y=1.415
+ $X2=13.065 $Y2=2.625
r65 19 23 29.2677 $w=1.78e-07 $l=4.75e-07 $layer=LI1_cond $X=12.59 $Y=1.325
+ $X2=13.065 $Y2=1.325
r66 19 21 14.1436 $w=3.28e-07 $l=4.05e-07 $layer=LI1_cond $X=12.59 $Y=1.235
+ $X2=12.59 $Y2=0.83
r67 17 32 9.71062 $w=2.73e-07 $l=5.5e-08 $layer=POLY_cond $X=11.385 $Y=1.32
+ $X2=11.44 $Y2=1.32
r68 16 17 145.28 $w=1.7e-07 $l=1.7e-07 $layer=licon1_POLY $count=1 $X=11.385
+ $Y=1.32 $X2=11.385 $Y2=1.32
r69 14 19 10.1667 $w=1.78e-07 $l=1.65e-07 $layer=LI1_cond $X=12.425 $Y=1.325
+ $X2=12.59 $Y2=1.325
r70 14 16 64.0808 $w=1.78e-07 $l=1.04e-06 $layer=LI1_cond $X=12.425 $Y=1.325
+ $X2=11.385 $Y2=1.325
r71 10 32 16.7618 $w=1.5e-07 $l=1.65e-07 $layer=POLY_cond $X=11.44 $Y=1.485
+ $X2=11.44 $Y2=1.32
r72 10 12 461.489 $w=1.5e-07 $l=9e-07 $layer=POLY_cond $X=11.44 $Y=1.485
+ $X2=11.44 $Y2=2.385
r73 7 17 42.3736 $w=2.73e-07 $l=3.11769e-07 $layer=POLY_cond $X=11.145 $Y=1.155
+ $X2=11.385 $Y2=1.32
r74 7 9 102.827 $w=1.5e-07 $l=3.2e-07 $layer=POLY_cond $X=11.145 $Y=1.155
+ $X2=11.145 $Y2=0.835
r75 2 25 600 $w=1.7e-07 $l=2.71109e-07 $layer=licon1_PDIFF $count=1 $X=12.895
+ $Y=2.415 $X2=13.035 $Y2=2.625
r76 1 21 182 $w=1.7e-07 $l=2.65942e-07 $layer=licon1_NDIFF $count=1 $X=12.45
+ $Y=0.625 $X2=12.59 $Y2=0.83
.ends

.subckt PM_SKY130_FD_SC_LP__SDFSTP_2%A_1998_463# 1 2 3 12 16 18 22 24 26 28 30
+ 31 32 34 36 40 41 46
c99 41 0 1.6681e-19 $X=12.665 $Y=1.75
c100 34 0 1.75145e-19 $X=10.505 $Y=0.8
r101 46 47 15.535 $w=4.28e-07 $l=5.45e-07 $layer=LI1_cond $X=12.085 $Y=2.242
+ $X2=12.63 $Y2=2.242
r102 40 41 72.64 $w=1.7e-07 $l=3.4e-07 $layer=licon1_POLY $count=2 $X=12.665
+ $Y=1.75 $X2=12.665 $Y2=1.75
r103 38 47 3.65327 $w=2.6e-07 $l=3.07e-07 $layer=LI1_cond $X=12.63 $Y=1.935
+ $X2=12.63 $Y2=2.242
r104 38 40 8.20008 $w=2.58e-07 $l=1.85e-07 $layer=LI1_cond $X=12.63 $Y=1.935
+ $X2=12.63 $Y2=1.75
r105 37 44 7.64692 $w=1.7e-07 $l=3.1496e-07 $layer=LI1_cond $X=10.7 $Y=2.02
+ $X2=10.39 $Y2=2.01
r106 36 46 8.29179 $w=4.28e-07 $l=2.79542e-07 $layer=LI1_cond $X=11.955 $Y=2.02
+ $X2=12.085 $Y2=2.242
r107 36 37 81.877 $w=1.68e-07 $l=1.255e-06 $layer=LI1_cond $X=11.955 $Y=2.02
+ $X2=10.7 $Y2=2.02
r108 32 44 2.43745 $w=6.05e-07 $l=9.84378e-08 $layer=LI1_cond $X=10.397 $Y=1.915
+ $X2=10.39 $Y2=2.01
r109 32 34 22.0434 $w=6.03e-07 $l=1.115e-06 $layer=LI1_cond $X=10.397 $Y=1.915
+ $X2=10.397 $Y2=0.8
r110 29 41 43.3659 $w=3.95e-07 $l=3.08e-07 $layer=POLY_cond $X=12.697 $Y=2.058
+ $X2=12.697 $Y2=1.75
r111 29 30 50.0695 $w=3.95e-07 $l=1.97e-07 $layer=POLY_cond $X=12.697 $Y=2.058
+ $X2=12.697 $Y2=2.255
r112 27 41 3.51996 $w=3.95e-07 $l=2.5e-08 $layer=POLY_cond $X=12.697 $Y=1.725
+ $X2=12.697 $Y2=1.75
r113 27 28 12.1181 $w=2.72e-07 $l=1.32288e-07 $layer=POLY_cond $X=12.697
+ $Y=1.725 $X2=12.597 $Y2=1.65
r114 24 31 20.4101 $w=1.5e-07 $l=7.5e-08 $layer=POLY_cond $X=13.77 $Y=1.725
+ $X2=13.77 $Y2=1.65
r115 24 26 138.173 $w=1.5e-07 $l=4.3e-07 $layer=POLY_cond $X=13.77 $Y=1.725
+ $X2=13.77 $Y2=2.155
r116 20 31 20.4101 $w=1.5e-07 $l=7.5e-08 $layer=POLY_cond $X=13.77 $Y=1.575
+ $X2=13.77 $Y2=1.65
r117 20 22 364.064 $w=1.5e-07 $l=7.1e-07 $layer=POLY_cond $X=13.77 $Y=1.575
+ $X2=13.77 $Y2=0.865
r118 19 28 14.0569 $w=1.5e-07 $l=2.98e-07 $layer=POLY_cond $X=12.895 $Y=1.65
+ $X2=12.597 $Y2=1.65
r119 18 31 5.30422 $w=1.5e-07 $l=7.5e-08 $layer=POLY_cond $X=13.695 $Y=1.65
+ $X2=13.77 $Y2=1.65
r120 18 19 410.213 $w=1.5e-07 $l=8e-07 $layer=POLY_cond $X=13.695 $Y=1.65
+ $X2=12.895 $Y2=1.65
r121 16 30 189.723 $w=1.5e-07 $l=3.7e-07 $layer=POLY_cond $X=12.82 $Y=2.625
+ $X2=12.82 $Y2=2.255
r122 10 28 12.1181 $w=2.72e-07 $l=2.56776e-07 $layer=POLY_cond $X=12.375
+ $Y=1.575 $X2=12.597 $Y2=1.65
r123 10 12 379.447 $w=1.5e-07 $l=7.4e-07 $layer=POLY_cond $X=12.375 $Y=1.575
+ $X2=12.375 $Y2=0.835
r124 3 46 600 $w=1.7e-07 $l=2.71109e-07 $layer=licon1_PDIFF $count=1 $X=11.945
+ $Y=2.175 $X2=12.085 $Y2=2.385
r125 2 44 600 $w=1.7e-07 $l=4.02803e-07 $layer=licon1_PDIFF $count=1 $X=9.99
+ $Y=2.315 $X2=10.245 $Y2=2.02
r126 1 34 91 $w=1.7e-07 $l=5.60714e-07 $layer=licon1_NDIFF $count=2 $X=10.025
+ $Y=0.625 $X2=10.505 $Y2=0.8
.ends

.subckt PM_SKY130_FD_SC_LP__SDFSTP_2%A_2686_131# 1 2 9 13 15 19 23 25 28 32 36
+ 39 40
r67 40 41 30.474 $w=3.3e-07 $l=7.5e-08 $layer=POLY_cond $X=14.25 $Y=1.39
+ $X2=14.25 $Y2=1.315
r68 37 43 46.2115 $w=3.3e-07 $l=1.65e-07 $layer=POLY_cond $X=14.25 $Y=1.48
+ $X2=14.25 $Y2=1.645
r69 37 40 15.7375 $w=3.3e-07 $l=9e-08 $layer=POLY_cond $X=14.25 $Y=1.48
+ $X2=14.25 $Y2=1.39
r70 36 37 145.28 $w=1.7e-07 $l=1.7e-07 $layer=licon1_POLY $count=1 $X=14.25
+ $Y=1.48 $X2=14.25 $Y2=1.48
r71 34 39 0.851123 $w=3.3e-07 $l=1.48e-07 $layer=LI1_cond $X=13.685 $Y=1.48
+ $X2=13.537 $Y2=1.48
r72 34 36 19.7312 $w=3.28e-07 $l=5.65e-07 $layer=LI1_cond $X=13.685 $Y=1.48
+ $X2=14.25 $Y2=1.48
r73 30 39 5.78497 $w=2.87e-07 $l=1.65e-07 $layer=LI1_cond $X=13.537 $Y=1.645
+ $X2=13.537 $Y2=1.48
r74 30 32 13.0871 $w=2.93e-07 $l=3.35e-07 $layer=LI1_cond $X=13.537 $Y=1.645
+ $X2=13.537 $Y2=1.98
r75 26 39 5.78497 $w=2.87e-07 $l=1.68464e-07 $layer=LI1_cond $X=13.53 $Y=1.315
+ $X2=13.537 $Y2=1.48
r76 26 28 18.5214 $w=2.78e-07 $l=4.5e-07 $layer=LI1_cond $X=13.53 $Y=1.315
+ $X2=13.53 $Y2=0.865
r77 21 25 20.4101 $w=1.5e-07 $l=7.5e-08 $layer=POLY_cond $X=14.71 $Y=1.465
+ $X2=14.71 $Y2=1.39
r78 21 23 512.766 $w=1.5e-07 $l=1e-06 $layer=POLY_cond $X=14.71 $Y=1.465
+ $X2=14.71 $Y2=2.465
r79 17 25 20.4101 $w=1.5e-07 $l=7.5e-08 $layer=POLY_cond $X=14.71 $Y=1.315
+ $X2=14.71 $Y2=1.39
r80 17 19 338.426 $w=1.5e-07 $l=6.6e-07 $layer=POLY_cond $X=14.71 $Y=1.315
+ $X2=14.71 $Y2=0.655
r81 16 40 21.2229 $w=1.5e-07 $l=1.65e-07 $layer=POLY_cond $X=14.415 $Y=1.39
+ $X2=14.25 $Y2=1.39
r82 15 25 5.30422 $w=1.5e-07 $l=7.5e-08 $layer=POLY_cond $X=14.635 $Y=1.39
+ $X2=14.71 $Y2=1.39
r83 15 16 112.809 $w=1.5e-07 $l=2.2e-07 $layer=POLY_cond $X=14.635 $Y=1.39
+ $X2=14.415 $Y2=1.39
r84 13 43 420.468 $w=1.5e-07 $l=8.2e-07 $layer=POLY_cond $X=14.28 $Y=2.465
+ $X2=14.28 $Y2=1.645
r85 9 41 338.426 $w=1.5e-07 $l=6.6e-07 $layer=POLY_cond $X=14.28 $Y=0.655
+ $X2=14.28 $Y2=1.315
r86 2 32 300 $w=1.7e-07 $l=1.97864e-07 $layer=licon1_PDIFF $count=2 $X=13.43
+ $Y=1.835 $X2=13.555 $Y2=1.98