* File: sky130_fd_sc_lp__sdfstp_lp.pex.spice
* Created: Wed Sep  2 10:36:01 2020
* Program "Calibre xRC"
* Version "v2018.4_34.26"
* Nominal Temperature: 27C
* Circuit Temperature: 27C
* 
.subckt PM_SKY130_FD_SC_LP__SDFSTP_LP%SCE 3 7 11 15 19 23 24 30 31 32 36 37 39
+ 40 48 51 55
r96 44 46 17.4861 $w=3.3e-07 $l=1e-07 $layer=POLY_cond $X=0.545 $Y=1.02
+ $X2=0.645 $Y2=1.02
r97 40 55 8.06514 $w=4.68e-07 $l=1.15e-07 $layer=LI1_cond $X=2.16 $Y=1.045
+ $X2=2.275 $Y2=1.045
r98 39 51 4.00199 $w=4.68e-07 $l=1.15e-07 $layer=LI1_cond $X=1.68 $Y=1.045
+ $X2=1.565 $Y2=1.045
r99 36 37 72.64 $w=1.7e-07 $l=3.4e-07 $layer=licon1_POLY $count=2 $X=2.675
+ $Y=1.285 $X2=2.675 $Y2=1.285
r100 34 36 0.177299 $w=3.23e-07 $l=5e-09 $layer=LI1_cond $X=2.672 $Y=1.28
+ $X2=2.672 $Y2=1.285
r101 32 34 7.72402 $w=1.7e-07 $l=2.00035e-07 $layer=LI1_cond $X=2.51 $Y=1.195
+ $X2=2.672 $Y2=1.28
r102 32 55 15.3316 $w=1.68e-07 $l=2.35e-07 $layer=LI1_cond $X=2.51 $Y=1.195
+ $X2=2.275 $Y2=1.195
r103 31 39 3.05382 $w=4.68e-07 $l=1.2e-07 $layer=LI1_cond $X=1.8 $Y=1.045
+ $X2=1.68 $Y2=1.045
r104 30 40 3.05382 $w=4.68e-07 $l=1.2e-07 $layer=LI1_cond $X=2.04 $Y=1.045
+ $X2=2.16 $Y2=1.045
r105 30 31 6.10763 $w=4.68e-07 $l=2.4e-07 $layer=LI1_cond $X=2.04 $Y=1.045
+ $X2=1.8 $Y2=1.045
r106 28 48 15.7375 $w=3.3e-07 $l=9e-08 $layer=POLY_cond $X=0.915 $Y=1.02
+ $X2=1.005 $Y2=1.02
r107 28 46 47.2125 $w=3.3e-07 $l=2.7e-07 $layer=POLY_cond $X=0.915 $Y=1.02
+ $X2=0.645 $Y2=1.02
r108 27 51 22.6996 $w=3.28e-07 $l=6.5e-07 $layer=LI1_cond $X=0.915 $Y=1.02
+ $X2=1.565 $Y2=1.02
r109 27 28 145.28 $w=1.7e-07 $l=1.7e-07 $layer=licon1_POLY $count=1 $X=0.915
+ $Y=1.02 $X2=0.915 $Y2=1.02
r110 23 37 59.4528 $w=3.3e-07 $l=3.4e-07 $layer=POLY_cond $X=2.675 $Y=1.625
+ $X2=2.675 $Y2=1.285
r111 23 24 31.2043 $w=3.3e-07 $l=1.65e-07 $layer=POLY_cond $X=2.675 $Y=1.625
+ $X2=2.675 $Y2=1.79
r112 22 37 46.2115 $w=3.3e-07 $l=1.65e-07 $layer=POLY_cond $X=2.675 $Y=1.12
+ $X2=2.675 $Y2=1.285
r113 19 24 183.856 $w=2.5e-07 $l=7.4e-07 $layer=POLY_cond $X=2.655 $Y=2.53
+ $X2=2.655 $Y2=1.79
r114 15 22 346.117 $w=1.5e-07 $l=6.75e-07 $layer=POLY_cond $X=2.585 $Y=0.445
+ $X2=2.585 $Y2=1.12
r115 9 48 21.2229 $w=1.5e-07 $l=1.65e-07 $layer=POLY_cond $X=1.005 $Y=0.855
+ $X2=1.005 $Y2=1.02
r116 9 11 210.234 $w=1.5e-07 $l=4.1e-07 $layer=POLY_cond $X=1.005 $Y=0.855
+ $X2=1.005 $Y2=0.445
r117 5 46 21.2229 $w=1.5e-07 $l=1.65e-07 $layer=POLY_cond $X=0.645 $Y=0.855
+ $X2=0.645 $Y2=1.02
r118 5 7 210.234 $w=1.5e-07 $l=4.1e-07 $layer=POLY_cond $X=0.645 $Y=0.855
+ $X2=0.645 $Y2=0.445
r119 1 44 9.34494 $w=2.5e-07 $l=1.65e-07 $layer=POLY_cond $X=0.545 $Y=1.185
+ $X2=0.545 $Y2=1.02
r120 1 3 337.897 $w=2.5e-07 $l=1.36e-06 $layer=POLY_cond $X=0.545 $Y=1.185
+ $X2=0.545 $Y2=2.545
.ends

.subckt PM_SKY130_FD_SC_LP__SDFSTP_LP%A_27_409# 1 2 9 12 13 15 16 17 20 23 26 32
+ 36 39
c69 32 0 1.32997e-19 $X=1.22 $Y=1.625
r70 36 38 6.28597 $w=4.78e-07 $l=2.05e-07 $layer=LI1_cond $X=0.355 $Y=0.47
+ $X2=0.355 $Y2=0.675
r71 32 33 145.28 $w=1.7e-07 $l=1.7e-07 $layer=licon1_POLY $count=1 $X=1.22
+ $Y=1.625 $X2=1.22 $Y2=1.625
r72 30 39 1.34256 $w=3.3e-07 $l=1.65e-07 $layer=LI1_cond $X=0.445 $Y=1.625
+ $X2=0.28 $Y2=1.625
r73 30 32 27.0649 $w=3.28e-07 $l=7.75e-07 $layer=LI1_cond $X=0.445 $Y=1.625
+ $X2=1.22 $Y2=1.625
r74 26 28 24.795 $w=3.28e-07 $l=7.1e-07 $layer=LI1_cond $X=0.28 $Y=2.19 $X2=0.28
+ $Y2=2.9
r75 24 39 5.16603 $w=3.3e-07 $l=1.65e-07 $layer=LI1_cond $X=0.28 $Y=1.79
+ $X2=0.28 $Y2=1.625
r76 24 26 13.969 $w=3.28e-07 $l=4e-07 $layer=LI1_cond $X=0.28 $Y=1.79 $X2=0.28
+ $Y2=2.19
r77 23 39 5.16603 $w=3.3e-07 $l=1.65e-07 $layer=LI1_cond $X=0.28 $Y=1.46
+ $X2=0.28 $Y2=1.625
r78 23 38 27.4142 $w=3.28e-07 $l=7.85e-07 $layer=LI1_cond $X=0.28 $Y=1.46
+ $X2=0.28 $Y2=0.675
r79 18 20 41.0213 $w=1.5e-07 $l=8e-08 $layer=POLY_cond $X=1.685 $Y=0.805
+ $X2=1.765 $Y2=0.805
r80 16 33 50.7098 $w=3.3e-07 $l=2.9e-07 $layer=POLY_cond $X=1.51 $Y=1.625
+ $X2=1.22 $Y2=1.625
r81 16 17 1.50692 $w=3.3e-07 $l=1.25e-07 $layer=POLY_cond $X=1.51 $Y=1.625
+ $X2=1.635 $Y2=1.625
r82 13 20 2.83073 $w=1.5e-07 $l=7.5e-08 $layer=POLY_cond $X=1.765 $Y=0.73
+ $X2=1.765 $Y2=0.805
r83 13 15 91.58 $w=1.5e-07 $l=2.85e-07 $layer=POLY_cond $X=1.765 $Y=0.73
+ $X2=1.765 $Y2=0.445
r84 12 17 30.2679 $w=2e-07 $l=1.88348e-07 $layer=POLY_cond $X=1.685 $Y=1.46
+ $X2=1.635 $Y2=1.625
r85 11 18 2.83073 $w=1.5e-07 $l=7.5e-08 $layer=POLY_cond $X=1.685 $Y=0.88
+ $X2=1.685 $Y2=0.805
r86 11 12 297.404 $w=1.5e-07 $l=5.8e-07 $layer=POLY_cond $X=1.685 $Y=0.88
+ $X2=1.685 $Y2=1.46
r87 7 17 30.2679 $w=2e-07 $l=1.65e-07 $layer=POLY_cond $X=1.635 $Y=1.79
+ $X2=1.635 $Y2=1.625
r88 7 9 183.856 $w=2.5e-07 $l=7.4e-07 $layer=POLY_cond $X=1.635 $Y=1.79
+ $X2=1.635 $Y2=2.53
r89 2 28 400 $w=1.7e-07 $l=9.24662e-07 $layer=licon1_PDIFF $count=1 $X=0.135
+ $Y=2.045 $X2=0.28 $Y2=2.9
r90 2 26 400 $w=1.7e-07 $l=2.05061e-07 $layer=licon1_PDIFF $count=1 $X=0.135
+ $Y=2.045 $X2=0.28 $Y2=2.19
r91 1 36 182 $w=1.7e-07 $l=2.98831e-07 $layer=licon1_NDIFF $count=1 $X=0.285
+ $Y=0.235 $X2=0.43 $Y2=0.47
.ends

.subckt PM_SKY130_FD_SC_LP__SDFSTP_LP%D 3 7 9 10 14
c41 14 0 1.32997e-19 $X=2.135 $Y=1.625
r42 14 17 32.3805 $w=3.3e-07 $l=1.65e-07 $layer=POLY_cond $X=2.135 $Y=1.625
+ $X2=2.135 $Y2=1.79
r43 14 16 46.2115 $w=3.3e-07 $l=1.65e-07 $layer=POLY_cond $X=2.135 $Y=1.625
+ $X2=2.135 $Y2=1.46
r44 10 14 145.28 $w=1.7e-07 $l=1.7e-07 $layer=licon1_POLY $count=1 $X=2.135
+ $Y=1.625 $X2=2.135 $Y2=1.625
r45 9 10 15.8897 $w=3.28e-07 $l=4.55e-07 $layer=LI1_cond $X=1.68 $Y=1.625
+ $X2=2.135 $Y2=1.625
r46 7 16 520.457 $w=1.5e-07 $l=1.015e-06 $layer=POLY_cond $X=2.155 $Y=0.445
+ $X2=2.155 $Y2=1.46
r47 3 17 183.856 $w=2.5e-07 $l=7.4e-07 $layer=POLY_cond $X=2.165 $Y=2.53
+ $X2=2.165 $Y2=1.79
.ends

.subckt PM_SKY130_FD_SC_LP__SDFSTP_LP%SCD 1 3 8 12 14 15 19 21
r50 19 22 63.0283 $w=6.3e-07 $l=5.05e-07 $layer=POLY_cond $X=3.375 $Y=1.325
+ $X2=3.375 $Y2=1.83
r51 19 21 50.3829 $w=6.3e-07 $l=1.65e-07 $layer=POLY_cond $X=3.375 $Y=1.325
+ $X2=3.375 $Y2=1.16
r52 14 15 13.3251 $w=3.18e-07 $l=3.7e-07 $layer=LI1_cond $X=3.525 $Y=1.295
+ $X2=3.525 $Y2=1.665
r53 14 19 72.64 $w=1.7e-07 $l=3.4e-07 $layer=licon1_POLY $count=2 $X=3.525
+ $Y=1.325 $X2=3.525 $Y2=1.325
r54 10 12 82.0426 $w=1.5e-07 $l=1.6e-07 $layer=POLY_cond $X=2.975 $Y=0.805
+ $X2=3.135 $Y2=0.805
r55 8 22 173.918 $w=2.5e-07 $l=7e-07 $layer=POLY_cond $X=3.185 $Y=2.53 $X2=3.185
+ $Y2=1.83
r56 4 12 2.83073 $w=1.5e-07 $l=7.5e-08 $layer=POLY_cond $X=3.135 $Y=0.88
+ $X2=3.135 $Y2=0.805
r57 4 21 143.574 $w=1.5e-07 $l=2.8e-07 $layer=POLY_cond $X=3.135 $Y=0.88
+ $X2=3.135 $Y2=1.16
r58 1 10 2.83073 $w=1.5e-07 $l=7.5e-08 $layer=POLY_cond $X=2.975 $Y=0.73
+ $X2=2.975 $Y2=0.805
r59 1 3 91.58 $w=1.5e-07 $l=2.85e-07 $layer=POLY_cond $X=2.975 $Y=0.73 $X2=2.975
+ $Y2=0.445
.ends

.subckt PM_SKY130_FD_SC_LP__SDFSTP_LP%CLK 3 6 9 13 16 17 20
c53 9 0 4.93603e-20 $X=4.275 $Y=2.545
c54 3 0 3.76099e-20 $X=4.11 $Y=0.75
r55 20 22 31.0702 $w=4.35e-07 $l=1.65e-07 $layer=POLY_cond $X=4.252 $Y=1.675
+ $X2=4.252 $Y2=1.84
r56 20 21 145.28 $w=1.7e-07 $l=1.7e-07 $layer=licon1_POLY $count=1 $X=4.305
+ $Y=1.675 $X2=4.305 $Y2=1.675
r57 17 21 8.90524 $w=3.28e-07 $l=2.55e-07 $layer=LI1_cond $X=4.56 $Y=1.675
+ $X2=4.305 $Y2=1.675
r58 9 22 175.16 $w=2.5e-07 $l=7.05e-07 $layer=POLY_cond $X=4.275 $Y=2.545
+ $X2=4.275 $Y2=1.84
r59 6 20 6.64828 $w=4.35e-07 $l=5.2e-08 $layer=POLY_cond $X=4.252 $Y=1.623
+ $X2=4.252 $Y2=1.675
r60 6 16 39.3783 $w=4.35e-07 $l=3.08e-07 $layer=POLY_cond $X=4.252 $Y=1.623
+ $X2=4.252 $Y2=1.315
r61 1 16 24.5823 $w=4.35e-07 $l=1.5e-07 $layer=POLY_cond $X=4.305 $Y=1.165
+ $X2=4.305 $Y2=1.315
r62 1 13 212.798 $w=1.5e-07 $l=4.15e-07 $layer=POLY_cond $X=4.5 $Y=1.165 $X2=4.5
+ $Y2=0.75
r63 1 3 212.798 $w=1.5e-07 $l=4.15e-07 $layer=POLY_cond $X=4.11 $Y=1.165
+ $X2=4.11 $Y2=0.75
.ends

.subckt PM_SKY130_FD_SC_LP__SDFSTP_LP%A_986_409# 1 2 9 13 17 21 25 27 28 32 35
+ 36 38 41 42 43 45 46 51 53 54 57 59 64 65 70
c206 65 0 1.43583e-19 $X=10.18 $Y=1.465
c207 64 0 1.422e-19 $X=10.015 $Y=1.465
c208 54 0 1.76636e-19 $X=5.875 $Y=1.3
c209 36 0 6.73817e-20 $X=6.73 $Y=1.465
c210 28 0 4.93603e-20 $X=5.235 $Y=2.98
r211 70 82 32.3805 $w=3.3e-07 $l=1.65e-07 $layer=POLY_cond $X=10.915 $Y=1.77
+ $X2=10.915 $Y2=1.935
r212 69 70 145.28 $w=1.7e-07 $l=1.7e-07 $layer=licon1_POLY $count=1 $X=10.915
+ $Y=1.77 $X2=10.915 $Y2=1.77
r213 64 78 46.2115 $w=3.3e-07 $l=1.65e-07 $layer=POLY_cond $X=10.015 $Y=1.465
+ $X2=10.015 $Y2=1.3
r214 63 65 8.46218 $w=3.28e-07 $l=1.65e-07 $layer=LI1_cond $X=10.015 $Y=1.465
+ $X2=10.18 $Y2=1.465
r215 63 64 145.28 $w=1.7e-07 $l=1.7e-07 $layer=licon1_POLY $count=1 $X=10.015
+ $Y=1.465 $X2=10.015 $Y2=1.465
r216 60 63 2.7938 $w=3.28e-07 $l=8e-08 $layer=LI1_cond $X=9.935 $Y=1.465
+ $X2=10.015 $Y2=1.465
r217 57 74 32.3805 $w=3.3e-07 $l=1.65e-07 $layer=POLY_cond $X=5.83 $Y=1.675
+ $X2=5.83 $Y2=1.84
r218 56 58 9.45624 $w=4.88e-07 $l=1.65e-07 $layer=LI1_cond $X=5.875 $Y=1.675
+ $X2=5.875 $Y2=1.84
r219 56 57 145.28 $w=1.7e-07 $l=1.7e-07 $layer=licon1_POLY $count=1 $X=5.83
+ $Y=1.675 $X2=5.83 $Y2=1.675
r220 53 56 5.12605 $w=4.88e-07 $l=2.1e-07 $layer=LI1_cond $X=5.875 $Y=1.465
+ $X2=5.875 $Y2=1.675
r221 53 54 9.45624 $w=4.88e-07 $l=1.65e-07 $layer=LI1_cond $X=5.875 $Y=1.465
+ $X2=5.875 $Y2=1.3
r222 49 51 6.63049 $w=3.63e-07 $l=2.1e-07 $layer=LI1_cond $X=5.505 $Y=0.797
+ $X2=5.715 $Y2=0.797
r223 46 69 8.50163 $w=3.03e-07 $l=2.25e-07 $layer=LI1_cond $X=10.902 $Y=1.545
+ $X2=10.902 $Y2=1.77
r224 46 65 37.1872 $w=1.68e-07 $l=5.7e-07 $layer=LI1_cond $X=10.75 $Y=1.545
+ $X2=10.18 $Y2=1.545
r225 44 60 4.62375 $w=1.7e-07 $l=1.65e-07 $layer=LI1_cond $X=9.935 $Y=1.63
+ $X2=9.935 $Y2=1.465
r226 44 45 57.0856 $w=1.68e-07 $l=8.75e-07 $layer=LI1_cond $X=9.935 $Y=1.63
+ $X2=9.935 $Y2=2.505
r227 42 45 6.81649 $w=1.7e-07 $l=1.20208e-07 $layer=LI1_cond $X=9.85 $Y=2.59
+ $X2=9.935 $Y2=2.505
r228 42 43 187.241 $w=1.68e-07 $l=2.87e-06 $layer=LI1_cond $X=9.85 $Y=2.59
+ $X2=6.98 $Y2=2.59
r229 40 43 6.81649 $w=1.7e-07 $l=1.20208e-07 $layer=LI1_cond $X=6.895 $Y=2.675
+ $X2=6.98 $Y2=2.59
r230 40 41 14.3529 $w=1.68e-07 $l=2.2e-07 $layer=LI1_cond $X=6.895 $Y=2.675
+ $X2=6.895 $Y2=2.895
r231 39 59 5.16603 $w=1.7e-07 $l=8.5e-08 $layer=LI1_cond $X=6.12 $Y=2.98
+ $X2=6.035 $Y2=2.98
r232 38 41 6.81649 $w=1.7e-07 $l=1.20208e-07 $layer=LI1_cond $X=6.81 $Y=2.98
+ $X2=6.895 $Y2=2.895
r233 38 39 45.016 $w=1.68e-07 $l=6.9e-07 $layer=LI1_cond $X=6.81 $Y=2.98
+ $X2=6.12 $Y2=2.98
r234 36 76 16.6207 $w=3.19e-07 $l=1.1e-07 $layer=POLY_cond $X=6.73 $Y=1.465
+ $X2=6.84 $Y2=1.465
r235 35 36 145.28 $w=1.7e-07 $l=1.7e-07 $layer=licon1_POLY $count=1 $X=6.73
+ $Y=1.465 $X2=6.73 $Y2=1.465
r236 33 53 3.05139 $w=3.3e-07 $l=2.45e-07 $layer=LI1_cond $X=6.12 $Y=1.465
+ $X2=5.875 $Y2=1.465
r237 33 35 21.3027 $w=3.28e-07 $l=6.1e-07 $layer=LI1_cond $X=6.12 $Y=1.465
+ $X2=6.73 $Y2=1.465
r238 32 59 1.34256 $w=1.7e-07 $l=8.5e-08 $layer=LI1_cond $X=6.035 $Y=2.895
+ $X2=6.035 $Y2=2.98
r239 32 58 68.8289 $w=1.68e-07 $l=1.055e-06 $layer=LI1_cond $X=6.035 $Y=2.895
+ $X2=6.035 $Y2=1.84
r240 29 51 5.2253 $w=1.7e-07 $l=1.83e-07 $layer=LI1_cond $X=5.715 $Y=0.98
+ $X2=5.715 $Y2=0.797
r241 29 54 20.877 $w=1.68e-07 $l=3.2e-07 $layer=LI1_cond $X=5.715 $Y=0.98
+ $X2=5.715 $Y2=1.3
r242 27 59 5.16603 $w=1.7e-07 $l=8.5e-08 $layer=LI1_cond $X=5.95 $Y=2.98
+ $X2=6.035 $Y2=2.98
r243 27 28 46.6471 $w=1.68e-07 $l=7.15e-07 $layer=LI1_cond $X=5.95 $Y=2.98
+ $X2=5.235 $Y2=2.98
r244 23 28 7.76618 $w=1.7e-07 $l=2.03101e-07 $layer=LI1_cond $X=5.07 $Y=2.895
+ $X2=5.235 $Y2=2.98
r245 23 25 12.5721 $w=3.28e-07 $l=3.6e-07 $layer=LI1_cond $X=5.07 $Y=2.895
+ $X2=5.07 $Y2=2.535
r246 21 82 163.979 $w=2.5e-07 $l=6.6e-07 $layer=POLY_cond $X=10.905 $Y=2.595
+ $X2=10.905 $Y2=1.935
r247 17 78 238.436 $w=1.5e-07 $l=4.65e-07 $layer=POLY_cond $X=9.955 $Y=0.835
+ $X2=9.955 $Y2=1.3
r248 11 76 20.418 $w=1.5e-07 $l=1.65e-07 $layer=POLY_cond $X=6.84 $Y=1.3
+ $X2=6.84 $Y2=1.465
r249 11 13 238.436 $w=1.5e-07 $l=4.65e-07 $layer=POLY_cond $X=6.84 $Y=1.3
+ $X2=6.84 $Y2=0.835
r250 9 74 187.582 $w=2.5e-07 $l=7.55e-07 $layer=POLY_cond $X=5.87 $Y=2.595
+ $X2=5.87 $Y2=1.84
r251 2 25 300 $w=1.7e-07 $l=5.55608e-07 $layer=licon1_PDIFF $count=2 $X=4.93
+ $Y=2.045 $X2=5.07 $Y2=2.535
r252 1 49 182 $w=1.7e-07 $l=3.17372e-07 $layer=licon1_NDIFF $count=1 $X=5.365
+ $Y=0.54 $X2=5.505 $Y2=0.795
.ends

.subckt PM_SKY130_FD_SC_LP__SDFSTP_LP%A_1425_99# 1 2 9 11 13 15 16 17 19 21 24
+ 31
c76 17 0 7.21954e-20 $X=8.095 $Y=1.3
c77 13 0 1.23194e-19 $X=7.26 $Y=2.595
c78 11 0 5.62448e-20 $X=7.26 $Y=1.885
c79 9 0 8.63956e-20 $X=7.2 $Y=0.835
r80 28 31 5.5817 $w=4.48e-07 $l=2.1e-07 $layer=LI1_cond $X=8.18 $Y=0.84 $X2=8.39
+ $Y2=0.84
r81 26 27 72.64 $w=1.7e-07 $l=3.4e-07 $layer=licon1_POLY $count=2 $X=7.59
+ $Y=1.38 $X2=7.59 $Y2=1.38
r82 23 28 6.50032 $w=1.7e-07 $l=2.25e-07 $layer=LI1_cond $X=8.18 $Y=1.065
+ $X2=8.18 $Y2=0.84
r83 23 24 9.7861 $w=1.68e-07 $l=1.5e-07 $layer=LI1_cond $X=8.18 $Y=1.065
+ $X2=8.18 $Y2=1.215
r84 19 21 30.8855 $w=2.48e-07 $l=6.7e-07 $layer=LI1_cond $X=7.755 $Y=2.2
+ $X2=8.425 $Y2=2.2
r85 18 26 5.12568 $w=1.7e-07 $l=1.65e-07 $layer=LI1_cond $X=7.755 $Y=1.3
+ $X2=7.59 $Y2=1.3
r86 17 24 6.81649 $w=1.7e-07 $l=1.20208e-07 $layer=LI1_cond $X=8.095 $Y=1.3
+ $X2=8.18 $Y2=1.215
r87 17 18 22.1818 $w=1.68e-07 $l=3.4e-07 $layer=LI1_cond $X=8.095 $Y=1.3
+ $X2=7.755 $Y2=1.3
r88 16 19 6.98653 $w=2.5e-07 $l=2.18746e-07 $layer=LI1_cond $X=7.59 $Y=2.075
+ $X2=7.755 $Y2=2.2
r89 15 26 2.6405 $w=3.3e-07 $l=8.5e-08 $layer=LI1_cond $X=7.59 $Y=1.385 $X2=7.59
+ $Y2=1.3
r90 15 16 24.0965 $w=3.28e-07 $l=6.9e-07 $layer=LI1_cond $X=7.59 $Y=1.385
+ $X2=7.59 $Y2=2.075
r91 11 27 56.9292 $w=6.22e-07 $l=5.88154e-07 $layer=POLY_cond $X=7.26 $Y=1.885
+ $X2=7.44 $Y2=1.38
r92 11 13 176.402 $w=2.5e-07 $l=7.1e-07 $layer=POLY_cond $X=7.26 $Y=1.885
+ $X2=7.26 $Y2=2.595
r93 7 27 45.1746 $w=6.22e-07 $l=3.11769e-07 $layer=POLY_cond $X=7.2 $Y=1.215
+ $X2=7.44 $Y2=1.38
r94 7 9 194.851 $w=1.5e-07 $l=3.8e-07 $layer=POLY_cond $X=7.2 $Y=1.215 $X2=7.2
+ $Y2=0.835
r95 2 21 600 $w=1.7e-07 $l=2.03286e-07 $layer=licon1_PDIFF $count=1 $X=8.285
+ $Y=2.095 $X2=8.425 $Y2=2.24
r96 1 31 182 $w=1.7e-07 $l=2.78209e-07 $layer=licon1_NDIFF $count=1 $X=8.245
+ $Y=0.625 $X2=8.39 $Y2=0.84
.ends

.subckt PM_SKY130_FD_SC_LP__SDFSTP_LP%A_1199_419# 1 2 9 13 14 17 21 25 29 30 33
+ 35 36 37 40 41 44 45 46 47 50 53 55 56 57 61 65 70 71 74
c186 71 0 1.43583e-19 $X=9.475 $Y=1.41
c187 70 0 1.96053e-19 $X=9.475 $Y=1.41
c188 61 0 8.63956e-20 $X=6.56 $Y=0.835
c189 57 0 5.62448e-20 $X=8.905 $Y=1.33
c190 56 0 1.99585e-19 $X=9.31 $Y=1.33
c191 50 0 2.901e-19 $X=8.16 $Y=1.73
c192 36 0 6.73817e-20 $X=6.63 $Y=2.16
c193 30 0 2.94985e-20 $X=9.475 $Y=1.915
r194 70 71 72.64 $w=1.7e-07 $l=3.4e-07 $layer=licon1_POLY $count=2 $X=9.475
+ $Y=1.41 $X2=9.475 $Y2=1.41
r195 66 68 18.9198 $w=1.68e-07 $l=2.9e-07 $layer=LI1_cond $X=8.53 $Y=1.33
+ $X2=8.82 $Y2=1.33
r196 61 63 4.53993 $w=3.28e-07 $l=1.3e-07 $layer=LI1_cond $X=6.56 $Y=0.835
+ $X2=6.56 $Y2=0.965
r197 57 68 5.54545 $w=1.68e-07 $l=8.5e-08 $layer=LI1_cond $X=8.905 $Y=1.33
+ $X2=8.82 $Y2=1.33
r198 56 70 5.12568 $w=1.7e-07 $l=1.65e-07 $layer=LI1_cond $X=9.31 $Y=1.33
+ $X2=9.475 $Y2=1.33
r199 56 57 26.4225 $w=1.68e-07 $l=4.05e-07 $layer=LI1_cond $X=9.31 $Y=1.33
+ $X2=8.905 $Y2=1.33
r200 55 68 0.716491 $w=1.7e-07 $l=8.5e-08 $layer=LI1_cond $X=8.82 $Y=1.245
+ $X2=8.82 $Y2=1.33
r201 54 55 52.8449 $w=1.68e-07 $l=8.1e-07 $layer=LI1_cond $X=8.82 $Y=0.435
+ $X2=8.82 $Y2=1.245
r202 52 66 0.716491 $w=1.7e-07 $l=8.5e-08 $layer=LI1_cond $X=8.53 $Y=1.415
+ $X2=8.53 $Y2=1.33
r203 52 53 9.7861 $w=1.68e-07 $l=1.5e-07 $layer=LI1_cond $X=8.53 $Y=1.415
+ $X2=8.53 $Y2=1.565
r204 50 74 46.2115 $w=3.3e-07 $l=1.65e-07 $layer=POLY_cond $X=8.16 $Y=1.73
+ $X2=8.16 $Y2=1.565
r205 49 50 145.28 $w=1.7e-07 $l=1.7e-07 $layer=licon1_POLY $count=1 $X=8.16
+ $Y=1.73 $X2=8.16 $Y2=1.73
r206 47 53 7.76618 $w=3.3e-07 $l=2.03101e-07 $layer=LI1_cond $X=8.445 $Y=1.73
+ $X2=8.53 $Y2=1.565
r207 47 49 9.95292 $w=3.28e-07 $l=2.85e-07 $layer=LI1_cond $X=8.445 $Y=1.73
+ $X2=8.16 $Y2=1.73
r208 45 54 6.81649 $w=1.7e-07 $l=1.20208e-07 $layer=LI1_cond $X=8.735 $Y=0.35
+ $X2=8.82 $Y2=0.435
r209 45 46 53.4973 $w=1.68e-07 $l=8.2e-07 $layer=LI1_cond $X=8.735 $Y=0.35
+ $X2=7.915 $Y2=0.35
r210 43 46 6.81649 $w=1.7e-07 $l=1.20208e-07 $layer=LI1_cond $X=7.83 $Y=0.435
+ $X2=7.915 $Y2=0.35
r211 43 44 28.0535 $w=1.68e-07 $l=4.3e-07 $layer=LI1_cond $X=7.83 $Y=0.435
+ $X2=7.83 $Y2=0.865
r212 42 65 4.81226 $w=1.85e-07 $l=9.21954e-08 $layer=LI1_cond $X=7.245 $Y=0.95
+ $X2=7.16 $Y2=0.965
r213 41 44 6.81649 $w=1.7e-07 $l=1.20208e-07 $layer=LI1_cond $X=7.745 $Y=0.95
+ $X2=7.83 $Y2=0.865
r214 41 42 32.6203 $w=1.68e-07 $l=5e-07 $layer=LI1_cond $X=7.745 $Y=0.95
+ $X2=7.245 $Y2=0.95
r215 39 65 1.64875 $w=1.7e-07 $l=1e-07 $layer=LI1_cond $X=7.16 $Y=1.065 $X2=7.16
+ $Y2=0.965
r216 39 40 65.8931 $w=1.68e-07 $l=1.01e-06 $layer=LI1_cond $X=7.16 $Y=1.065
+ $X2=7.16 $Y2=2.075
r217 38 63 3.66692 $w=2e-07 $l=1.65e-07 $layer=LI1_cond $X=6.725 $Y=0.965
+ $X2=6.56 $Y2=0.965
r218 37 65 4.81226 $w=1.85e-07 $l=8.5e-08 $layer=LI1_cond $X=7.075 $Y=0.965
+ $X2=7.16 $Y2=0.965
r219 37 38 19.4091 $w=1.98e-07 $l=3.5e-07 $layer=LI1_cond $X=7.075 $Y=0.965
+ $X2=6.725 $Y2=0.965
r220 35 40 6.81649 $w=1.7e-07 $l=1.20208e-07 $layer=LI1_cond $X=7.075 $Y=2.16
+ $X2=7.16 $Y2=2.075
r221 35 36 29.0321 $w=1.68e-07 $l=4.45e-07 $layer=LI1_cond $X=7.075 $Y=2.16
+ $X2=6.63 $Y2=2.16
r222 31 36 7.76618 $w=1.7e-07 $l=2.03101e-07 $layer=LI1_cond $X=6.465 $Y=2.245
+ $X2=6.63 $Y2=2.16
r223 31 33 5.23838 $w=3.28e-07 $l=1.5e-07 $layer=LI1_cond $X=6.465 $Y=2.245
+ $X2=6.465 $Y2=2.395
r224 29 71 59.4528 $w=3.3e-07 $l=3.4e-07 $layer=POLY_cond $X=9.475 $Y=1.75
+ $X2=9.475 $Y2=1.41
r225 29 30 32.3805 $w=3.3e-07 $l=1.65e-07 $layer=POLY_cond $X=9.475 $Y=1.75
+ $X2=9.475 $Y2=1.915
r226 28 71 46.2115 $w=3.3e-07 $l=1.65e-07 $layer=POLY_cond $X=9.475 $Y=1.245
+ $X2=9.475 $Y2=1.41
r227 25 28 210.234 $w=1.5e-07 $l=4.1e-07 $layer=POLY_cond $X=9.565 $Y=0.835
+ $X2=9.565 $Y2=1.245
r228 21 30 168.948 $w=2.5e-07 $l=6.8e-07 $layer=POLY_cond $X=9.515 $Y=2.595
+ $X2=9.515 $Y2=1.915
r229 15 17 194.851 $w=1.5e-07 $l=3.8e-07 $layer=POLY_cond $X=8.605 $Y=1.215
+ $X2=8.605 $Y2=0.835
r230 13 15 26.9307 $w=1.5e-07 $l=1.06066e-07 $layer=POLY_cond $X=8.53 $Y=1.29
+ $X2=8.605 $Y2=1.215
r231 13 14 105.117 $w=1.5e-07 $l=2.05e-07 $layer=POLY_cond $X=8.53 $Y=1.29
+ $X2=8.325 $Y2=1.29
r232 11 14 26.9307 $w=1.5e-07 $l=1.06066e-07 $layer=POLY_cond $X=8.25 $Y=1.365
+ $X2=8.325 $Y2=1.29
r233 11 74 102.553 $w=1.5e-07 $l=2e-07 $layer=POLY_cond $X=8.25 $Y=1.365
+ $X2=8.25 $Y2=1.565
r234 7 50 32.3805 $w=3.3e-07 $l=1.65e-07 $layer=POLY_cond $X=8.16 $Y=1.895
+ $X2=8.16 $Y2=1.73
r235 7 9 173.918 $w=2.5e-07 $l=7e-07 $layer=POLY_cond $X=8.16 $Y=1.895 $X2=8.16
+ $Y2=2.595
r236 2 33 600 $w=1.7e-07 $l=6.01581e-07 $layer=licon1_PDIFF $count=1 $X=5.995
+ $Y=2.095 $X2=6.465 $Y2=2.395
r237 1 61 182 $w=1.7e-07 $l=2.95212e-07 $layer=licon1_NDIFF $count=1 $X=6.355
+ $Y=0.625 $X2=6.56 $Y2=0.835
.ends

.subckt PM_SKY130_FD_SC_LP__SDFSTP_LP%SET_B 3 7 9 11 12 13 16 20 21 22 27 30 31
+ 36 37
c126 37 0 1.99585e-19 $X=8.995 $Y=1.77
c127 36 0 1.66906e-19 $X=8.935 $Y=1.77
c128 21 0 2.94985e-20 $X=12.095 $Y=2.035
c129 7 0 7.21954e-20 $X=8.995 $Y=0.835
r130 35 37 10.4917 $w=3.3e-07 $l=6e-08 $layer=POLY_cond $X=8.935 $Y=1.77
+ $X2=8.995 $Y2=1.77
r131 35 36 145.28 $w=1.7e-07 $l=1.7e-07 $layer=licon1_POLY $count=1 $X=8.935
+ $Y=1.77 $X2=8.935 $Y2=1.77
r132 32 35 42.841 $w=3.3e-07 $l=2.45e-07 $layer=POLY_cond $X=8.69 $Y=1.77
+ $X2=8.935 $Y2=1.77
r133 31 46 21.1281 $w=3.28e-07 $l=6.05e-07 $layer=LI1_cond $X=12.265 $Y=1.43
+ $X2=12.265 $Y2=2.035
r134 30 31 72.64 $w=1.7e-07 $l=3.4e-07 $layer=licon1_POLY $count=2 $X=12.265
+ $Y=1.43 $X2=12.265 $Y2=1.43
r135 27 46 9.3 $w=1.7e-07 $l=1.7e-07 $layer=mcon $count=1 $X=12.24 $Y=2.035
+ $X2=12.24 $Y2=2.035
r136 25 36 10.013 $w=3.03e-07 $l=2.65e-07 $layer=LI1_cond $X=8.947 $Y=2.035
+ $X2=8.947 $Y2=1.77
r137 24 25 9.3 $w=1.7e-07 $l=1.7e-07 $layer=mcon $count=1 $X=8.88 $Y=2.035
+ $X2=8.88 $Y2=2.035
r138 22 24 0.115467 $w=2.3e-07 $l=1.45e-07 $layer=MET1_cond $X=9.025 $Y=2.035
+ $X2=8.88 $Y2=2.035
r139 21 27 0.115467 $w=2.3e-07 $l=1.45e-07 $layer=MET1_cond $X=12.095 $Y=2.035
+ $X2=12.24 $Y2=2.035
r140 21 22 3.7995 $w=1.4e-07 $l=3.07e-06 $layer=MET1_cond $X=12.095 $Y=2.035
+ $X2=9.025 $Y2=2.035
r141 19 30 59.4528 $w=3.3e-07 $l=3.4e-07 $layer=POLY_cond $X=12.265 $Y=1.77
+ $X2=12.265 $Y2=1.43
r142 19 20 32.3805 $w=3.3e-07 $l=1.65e-07 $layer=POLY_cond $X=12.265 $Y=1.77
+ $X2=12.265 $Y2=1.935
r143 18 30 79.5619 $w=3.3e-07 $l=4.55e-07 $layer=POLY_cond $X=12.265 $Y=0.975
+ $X2=12.265 $Y2=1.43
r144 16 20 163.979 $w=2.5e-07 $l=6.6e-07 $layer=POLY_cond $X=12.225 $Y=2.595
+ $X2=12.225 $Y2=1.935
r145 12 18 32.1775 $w=1.5e-07 $l=1.98997e-07 $layer=POLY_cond $X=12.1 $Y=0.9
+ $X2=12.265 $Y2=0.975
r146 12 13 358.936 $w=1.5e-07 $l=7e-07 $layer=POLY_cond $X=12.1 $Y=0.9 $X2=11.4
+ $Y2=0.9
r147 9 13 26.9307 $w=1.5e-07 $l=1.06066e-07 $layer=POLY_cond $X=11.325 $Y=0.825
+ $X2=11.4 $Y2=0.9
r148 9 11 91.58 $w=1.5e-07 $l=2.85e-07 $layer=POLY_cond $X=11.325 $Y=0.825
+ $X2=11.325 $Y2=0.54
r149 5 37 21.2229 $w=1.5e-07 $l=1.65e-07 $layer=POLY_cond $X=8.995 $Y=1.605
+ $X2=8.995 $Y2=1.77
r150 5 7 394.83 $w=1.5e-07 $l=7.7e-07 $layer=POLY_cond $X=8.995 $Y=1.605
+ $X2=8.995 $Y2=0.835
r151 1 32 9.34494 $w=2.5e-07 $l=1.65e-07 $layer=POLY_cond $X=8.69 $Y=1.935
+ $X2=8.69 $Y2=1.77
r152 1 3 163.979 $w=2.5e-07 $l=6.6e-07 $layer=POLY_cond $X=8.69 $Y=1.935
+ $X2=8.69 $Y2=2.595
.ends

.subckt PM_SKY130_FD_SC_LP__SDFSTP_LP%A_750_108# 1 2 9 13 16 17 21 23 28 30 31
+ 32 33 34 35 37 38 40 41 42 44 48 49 50 51 54 60 63 64 68 69 72 75
c208 54 0 1.84917e-19 $X=10.545 $Y=1.195
c209 49 0 1.98095e-19 $X=4.93 $Y=1.195
c210 42 0 5.38522e-20 $X=10.13 $Y=1.945
c211 16 0 1.76636e-19 $X=4.93 $Y=1.555
r212 76 78 21.8577 $w=3.3e-07 $l=1.25e-07 $layer=POLY_cond $X=4.805 $Y=1.72
+ $X2=4.93 $Y2=1.72
r213 72 74 9.71523 $w=2.48e-07 $l=1.85e-07 $layer=LI1_cond $X=3.935 $Y=0.795
+ $X2=3.935 $Y2=0.98
r214 69 78 5.24584 $w=3.3e-07 $l=3e-08 $layer=POLY_cond $X=4.96 $Y=1.72 $X2=4.93
+ $Y2=1.72
r215 68 69 145.28 $w=1.7e-07 $l=1.7e-07 $layer=licon1_POLY $count=1 $X=4.96
+ $Y=1.72 $X2=4.96 $Y2=1.72
r216 66 68 12.5721 $w=2.73e-07 $l=3e-07 $layer=LI1_cond $X=4.962 $Y=2.02
+ $X2=4.962 $Y2=1.72
r217 65 75 2.76166 $w=1.7e-07 $l=1.65e-07 $layer=LI1_cond $X=4.175 $Y=2.105
+ $X2=4.01 $Y2=2.105
r218 64 66 7.32204 $w=1.7e-07 $l=1.74396e-07 $layer=LI1_cond $X=4.825 $Y=2.105
+ $X2=4.962 $Y2=2.02
r219 64 65 42.4064 $w=1.68e-07 $l=6.5e-07 $layer=LI1_cond $X=4.825 $Y=2.105
+ $X2=4.175 $Y2=2.105
r220 63 75 3.70735 $w=2.5e-07 $l=1.11018e-07 $layer=LI1_cond $X=3.95 $Y=2.02
+ $X2=4.01 $Y2=2.105
r221 63 74 67.8503 $w=1.68e-07 $l=1.04e-06 $layer=LI1_cond $X=3.95 $Y=2.02
+ $X2=3.95 $Y2=0.98
r222 58 75 3.70735 $w=2.5e-07 $l=8.5e-08 $layer=LI1_cond $X=4.01 $Y=2.19
+ $X2=4.01 $Y2=2.105
r223 58 60 24.795 $w=3.28e-07 $l=7.1e-07 $layer=LI1_cond $X=4.01 $Y=2.19
+ $X2=4.01 $Y2=2.9
r224 52 54 41.0213 $w=1.5e-07 $l=8e-08 $layer=POLY_cond $X=10.465 $Y=1.195
+ $X2=10.545 $Y2=1.195
r225 46 54 2.83073 $w=1.5e-07 $l=7.5e-08 $layer=POLY_cond $X=10.545 $Y=1.12
+ $X2=10.545 $Y2=1.195
r226 46 48 297.404 $w=1.5e-07 $l=5.8e-07 $layer=POLY_cond $X=10.545 $Y=1.12
+ $X2=10.545 $Y2=0.54
r227 45 48 146.138 $w=1.5e-07 $l=2.85e-07 $layer=POLY_cond $X=10.545 $Y=0.255
+ $X2=10.545 $Y2=0.54
r228 43 52 2.83073 $w=1.5e-07 $l=7.5e-08 $layer=POLY_cond $X=10.465 $Y=1.27
+ $X2=10.465 $Y2=1.195
r229 43 44 307.66 $w=1.5e-07 $l=6e-07 $layer=POLY_cond $X=10.465 $Y=1.27
+ $X2=10.465 $Y2=1.87
r230 41 44 26.9307 $w=1.5e-07 $l=1.06066e-07 $layer=POLY_cond $X=10.39 $Y=1.945
+ $X2=10.465 $Y2=1.87
r231 41 42 133.319 $w=1.5e-07 $l=2.6e-07 $layer=POLY_cond $X=10.39 $Y=1.945
+ $X2=10.13 $Y2=1.945
r232 38 42 29.1797 $w=1.5e-07 $l=1.58114e-07 $layer=POLY_cond $X=10.005 $Y=2.02
+ $X2=10.13 $Y2=1.945
r233 38 40 110.86 $w=2.5e-07 $l=5.75e-07 $layer=POLY_cond $X=10.005 $Y=2.02
+ $X2=10.005 $Y2=2.595
r234 35 37 110.86 $w=2.5e-07 $l=5.75e-07 $layer=POLY_cond $X=6.73 $Y=2.02
+ $X2=6.73 $Y2=2.595
r235 33 35 29.1797 $w=1.5e-07 $l=1.58114e-07 $layer=POLY_cond $X=6.605 $Y=1.945
+ $X2=6.73 $Y2=2.02
r236 33 34 128.191 $w=1.5e-07 $l=2.5e-07 $layer=POLY_cond $X=6.605 $Y=1.945
+ $X2=6.355 $Y2=1.945
r237 31 45 26.9307 $w=1.5e-07 $l=1.06066e-07 $layer=POLY_cond $X=10.47 $Y=0.18
+ $X2=10.545 $Y2=0.255
r238 31 32 2110.03 $w=1.5e-07 $l=4.115e-06 $layer=POLY_cond $X=10.47 $Y=0.18
+ $X2=6.355 $Y2=0.18
r239 30 34 26.9307 $w=1.5e-07 $l=1.06066e-07 $layer=POLY_cond $X=6.28 $Y=1.87
+ $X2=6.355 $Y2=1.945
r240 29 51 20.4101 $w=1.5e-07 $l=7.5e-08 $layer=POLY_cond $X=6.28 $Y=1.27
+ $X2=6.28 $Y2=1.195
r241 29 30 307.66 $w=1.5e-07 $l=6e-07 $layer=POLY_cond $X=6.28 $Y=1.27 $X2=6.28
+ $Y2=1.87
r242 26 51 20.4101 $w=1.5e-07 $l=7.5e-08 $layer=POLY_cond $X=6.28 $Y=1.12
+ $X2=6.28 $Y2=1.195
r243 26 28 146.138 $w=1.5e-07 $l=2.85e-07 $layer=POLY_cond $X=6.28 $Y=1.12
+ $X2=6.28 $Y2=0.835
r244 25 32 26.9307 $w=1.5e-07 $l=1.06066e-07 $layer=POLY_cond $X=6.28 $Y=0.255
+ $X2=6.355 $Y2=0.18
r245 25 28 297.404 $w=1.5e-07 $l=5.8e-07 $layer=POLY_cond $X=6.28 $Y=0.255
+ $X2=6.28 $Y2=0.835
r246 24 50 20.4101 $w=1.5e-07 $l=7.5e-08 $layer=POLY_cond $X=5.365 $Y=1.195
+ $X2=5.29 $Y2=1.195
r247 23 51 5.30422 $w=1.5e-07 $l=7.5e-08 $layer=POLY_cond $X=6.205 $Y=1.195
+ $X2=6.28 $Y2=1.195
r248 23 24 430.723 $w=1.5e-07 $l=8.4e-07 $layer=POLY_cond $X=6.205 $Y=1.195
+ $X2=5.365 $Y2=1.195
r249 19 50 5.30422 $w=1.5e-07 $l=7.5e-08 $layer=POLY_cond $X=5.29 $Y=1.12
+ $X2=5.29 $Y2=1.195
r250 19 21 189.723 $w=1.5e-07 $l=3.7e-07 $layer=POLY_cond $X=5.29 $Y=1.12
+ $X2=5.29 $Y2=0.75
r251 18 49 5.30422 $w=1.5e-07 $l=7.5e-08 $layer=POLY_cond $X=5.005 $Y=1.195
+ $X2=4.93 $Y2=1.195
r252 17 50 20.4101 $w=1.5e-07 $l=7.5e-08 $layer=POLY_cond $X=5.215 $Y=1.195
+ $X2=5.29 $Y2=1.195
r253 17 18 107.681 $w=1.5e-07 $l=2.1e-07 $layer=POLY_cond $X=5.215 $Y=1.195
+ $X2=5.005 $Y2=1.195
r254 16 78 21.2229 $w=1.5e-07 $l=1.65e-07 $layer=POLY_cond $X=4.93 $Y=1.555
+ $X2=4.93 $Y2=1.72
r255 15 49 20.4101 $w=1.5e-07 $l=7.5e-08 $layer=POLY_cond $X=4.93 $Y=1.27
+ $X2=4.93 $Y2=1.195
r256 15 16 146.138 $w=1.5e-07 $l=2.85e-07 $layer=POLY_cond $X=4.93 $Y=1.27
+ $X2=4.93 $Y2=1.555
r257 11 49 20.4101 $w=1.5e-07 $l=7.5e-08 $layer=POLY_cond $X=4.93 $Y=1.12
+ $X2=4.93 $Y2=1.195
r258 11 13 189.723 $w=1.5e-07 $l=3.7e-07 $layer=POLY_cond $X=4.93 $Y=1.12
+ $X2=4.93 $Y2=0.75
r259 7 76 9.34494 $w=2.5e-07 $l=1.65e-07 $layer=POLY_cond $X=4.805 $Y=1.885
+ $X2=4.805 $Y2=1.72
r260 7 9 163.979 $w=2.5e-07 $l=6.6e-07 $layer=POLY_cond $X=4.805 $Y=1.885
+ $X2=4.805 $Y2=2.545
r261 2 60 400 $w=1.7e-07 $l=9.24662e-07 $layer=licon1_PDIFF $count=1 $X=3.865
+ $Y=2.045 $X2=4.01 $Y2=2.9
r262 2 58 400 $w=1.7e-07 $l=2.05061e-07 $layer=licon1_PDIFF $count=1 $X=3.865
+ $Y=2.045 $X2=4.01 $Y2=2.19
r263 1 72 182 $w=1.7e-07 $l=3.19374e-07 $layer=licon1_NDIFF $count=1 $X=3.75
+ $Y=0.54 $X2=3.895 $Y2=0.795
.ends

.subckt PM_SKY130_FD_SC_LP__SDFSTP_LP%A_2172_40# 1 2 9 11 12 15 19 22 23 26 28
+ 30 35
c83 35 0 1.32475e-20 $X=11.605 $Y=1.29
r84 28 30 36.6477 $w=2.48e-07 $l=7.95e-07 $layer=LI1_cond $X=13.01 $Y=1.085
+ $X2=13.01 $Y2=1.88
r85 24 28 24.7914 $w=1.68e-07 $l=3.8e-07 $layer=LI1_cond $X=12.63 $Y=1 $X2=13.01
+ $Y2=1
r86 24 26 14.6675 $w=3.28e-07 $l=4.2e-07 $layer=LI1_cond $X=12.63 $Y=0.915
+ $X2=12.63 $Y2=0.495
r87 22 24 10.7647 $w=1.68e-07 $l=1.65e-07 $layer=LI1_cond $X=12.465 $Y=1
+ $X2=12.63 $Y2=1
r88 22 23 37.5134 $w=1.68e-07 $l=5.75e-07 $layer=LI1_cond $X=12.465 $Y=1
+ $X2=11.89 $Y2=1
r89 20 38 64.545 $w=5.7e-07 $l=5.05e-07 $layer=POLY_cond $X=11.605 $Y=1.38
+ $X2=11.605 $Y2=1.885
r90 20 35 8.44783 $w=5.7e-07 $l=9e-08 $layer=POLY_cond $X=11.605 $Y=1.38
+ $X2=11.605 $Y2=1.29
r91 19 20 72.64 $w=1.7e-07 $l=3.4e-07 $layer=licon1_POLY $count=2 $X=11.725
+ $Y=1.38 $X2=11.725 $Y2=1.38
r92 17 23 7.55824 $w=1.7e-07 $l=1.90825e-07 $layer=LI1_cond $X=11.737 $Y=1.085
+ $X2=11.89 $Y2=1
r93 17 19 11.1466 $w=3.03e-07 $l=2.95e-07 $layer=LI1_cond $X=11.737 $Y=1.085
+ $X2=11.737 $Y2=1.38
r94 15 38 176.402 $w=2.5e-07 $l=7.1e-07 $layer=POLY_cond $X=11.445 $Y=2.595
+ $X2=11.445 $Y2=1.885
r95 11 35 34.7497 $w=1.5e-07 $l=2.85e-07 $layer=POLY_cond $X=11.32 $Y=1.29
+ $X2=11.605 $Y2=1.29
r96 11 12 158.957 $w=1.5e-07 $l=3.1e-07 $layer=POLY_cond $X=11.32 $Y=1.29
+ $X2=11.01 $Y2=1.29
r97 7 12 26.9307 $w=1.5e-07 $l=1.06066e-07 $layer=POLY_cond $X=10.935 $Y=1.215
+ $X2=11.01 $Y2=1.29
r98 7 9 346.117 $w=1.5e-07 $l=6.75e-07 $layer=POLY_cond $X=10.935 $Y=1.215
+ $X2=10.935 $Y2=0.54
r99 2 30 300 $w=1.7e-07 $l=2.05061e-07 $layer=licon1_PDIFF $count=2 $X=12.905
+ $Y=1.735 $X2=13.05 $Y2=1.88
r100 1 26 182 $w=1.7e-07 $l=2.73038e-07 $layer=licon1_NDIFF $count=1 $X=12.485
+ $Y=0.285 $X2=12.63 $Y2=0.495
.ends

.subckt PM_SKY130_FD_SC_LP__SDFSTP_LP%A_2006_125# 1 2 3 10 12 13 14 15 17 20 22
+ 26 28 32 36 39 41 42 43 46 50 52 53 54 57 58 60 61 62 63 66 67 70 72 75 78
c181 57 0 1.84917e-19 $X=11.32 $Y=2.33
r182 72 74 6.11144 $w=3.28e-07 $l=1.75e-07 $layer=LI1_cond $X=10.405 $Y=2.24
+ $X2=10.405 $Y2=2.415
r183 70 78 86.1176 $w=1.68e-07 $l=1.32e-06 $layer=LI1_cond $X=13.4 $Y=2.895
+ $X2=13.4 $Y2=1.575
r184 66 67 72.64 $w=1.7e-07 $l=3.4e-07 $layer=licon1_POLY $count=2 $X=13.48
+ $Y=1.07 $X2=13.48 $Y2=1.07
r185 64 78 8.46218 $w=3.28e-07 $l=1.65e-07 $layer=LI1_cond $X=13.48 $Y=1.41
+ $X2=13.48 $Y2=1.575
r186 64 66 11.8737 $w=3.28e-07 $l=3.4e-07 $layer=LI1_cond $X=13.48 $Y=1.41
+ $X2=13.48 $Y2=1.07
r187 62 70 6.81649 $w=1.7e-07 $l=1.20208e-07 $layer=LI1_cond $X=13.315 $Y=2.98
+ $X2=13.4 $Y2=2.895
r188 62 63 43.0588 $w=1.68e-07 $l=6.6e-07 $layer=LI1_cond $X=13.315 $Y=2.98
+ $X2=12.655 $Y2=2.98
r189 61 63 7.76618 $w=1.7e-07 $l=2.03101e-07 $layer=LI1_cond $X=12.49 $Y=2.895
+ $X2=12.655 $Y2=2.98
r190 60 77 2.6405 $w=3.3e-07 $l=8.5e-08 $layer=LI1_cond $X=12.49 $Y=2.5
+ $X2=12.49 $Y2=2.415
r191 60 61 13.7944 $w=3.28e-07 $l=3.95e-07 $layer=LI1_cond $X=12.49 $Y=2.5
+ $X2=12.49 $Y2=2.895
r192 59 75 5.16603 $w=1.7e-07 $l=8.5e-08 $layer=LI1_cond $X=11.405 $Y=2.415
+ $X2=11.32 $Y2=2.415
r193 58 77 5.12568 $w=1.7e-07 $l=1.65e-07 $layer=LI1_cond $X=12.325 $Y=2.415
+ $X2=12.49 $Y2=2.415
r194 58 59 60.0214 $w=1.68e-07 $l=9.2e-07 $layer=LI1_cond $X=12.325 $Y=2.415
+ $X2=11.405 $Y2=2.415