* File: sky130_fd_sc_lp__sdfstp_1.pex.spice
* Created: Wed Sep  2 10:35:37 2020
* Program "Calibre xRC"
* Version "v2018.4_34.26"
* Nominal Temperature: 27C
* Circuit Temperature: 27C
* 
.subckt PM_SKY130_FD_SC_LP__SDFSTP_1%SCD 3 7 9 10 11 12 13 17
r30 17 18 72.64 $w=1.7e-07 $l=3.4e-07 $layer=licon1_POLY $count=2 $X=0.455
+ $Y=1.335 $X2=0.455 $Y2=1.335
r31 13 18 8.4883 $w=4.63e-07 $l=3.3e-07 $layer=LI1_cond $X=0.387 $Y=1.665
+ $X2=0.387 $Y2=1.335
r32 12 18 1.02888 $w=4.63e-07 $l=4e-08 $layer=LI1_cond $X=0.387 $Y=1.295
+ $X2=0.387 $Y2=1.335
r33 10 17 59.4528 $w=3.3e-07 $l=3.4e-07 $layer=POLY_cond $X=0.455 $Y=1.675
+ $X2=0.455 $Y2=1.335
r34 10 11 38.6168 $w=3.3e-07 $l=1.65e-07 $layer=POLY_cond $X=0.455 $Y=1.675
+ $X2=0.455 $Y2=1.84
r35 9 17 46.2115 $w=3.3e-07 $l=1.65e-07 $layer=POLY_cond $X=0.455 $Y=1.17
+ $X2=0.455 $Y2=1.335
r36 7 9 102.827 $w=1.5e-07 $l=3.2e-07 $layer=POLY_cond $X=0.545 $Y=0.85
+ $X2=0.545 $Y2=1.17
r37 3 11 266.638 $w=1.5e-07 $l=5.2e-07 $layer=POLY_cond $X=0.475 $Y=2.36
+ $X2=0.475 $Y2=1.84
.ends

.subckt PM_SKY130_FD_SC_LP__SDFSTP_1%D 3 7 9 10 11 16
r37 16 19 46.2115 $w=3.3e-07 $l=1.65e-07 $layer=POLY_cond $X=1.355 $Y=1.695
+ $X2=1.355 $Y2=1.86
r38 16 18 46.2115 $w=3.3e-07 $l=1.65e-07 $layer=POLY_cond $X=1.355 $Y=1.695
+ $X2=1.355 $Y2=1.53
r39 16 17 145.28 $w=1.7e-07 $l=1.7e-07 $layer=licon1_POLY $count=1 $X=1.355
+ $Y=1.695 $X2=1.355 $Y2=1.695
r40 10 11 17.8443 $w=3.08e-07 $l=4.8e-07 $layer=LI1_cond $X=1.68 $Y=1.685
+ $X2=2.16 $Y2=1.685
r41 10 17 12.0821 $w=3.08e-07 $l=3.25e-07 $layer=LI1_cond $X=1.68 $Y=1.685
+ $X2=1.355 $Y2=1.685
r42 9 17 5.76222 $w=3.08e-07 $l=1.55e-07 $layer=LI1_cond $X=1.2 $Y=1.685
+ $X2=1.355 $Y2=1.685
r43 7 18 348.681 $w=1.5e-07 $l=6.8e-07 $layer=POLY_cond $X=1.335 $Y=0.85
+ $X2=1.335 $Y2=1.53
r44 3 19 256.383 $w=1.5e-07 $l=5e-07 $layer=POLY_cond $X=1.265 $Y=2.36 $X2=1.265
+ $Y2=1.86
.ends

.subckt PM_SKY130_FD_SC_LP__SDFSTP_1%A_324_102# 1 2 7 9 10 12 14 17 24 25 26 27
+ 30
c81 30 0 8.09203e-20 $X=3.32 $Y=2.56
r82 28 30 41.2735 $w=2.13e-07 $l=7.7e-07 $layer=LI1_cond $X=3.332 $Y=1.79
+ $X2=3.332 $Y2=2.56
r83 26 28 6.93832 $w=1.7e-07 $l=1.43332e-07 $layer=LI1_cond $X=3.225 $Y=1.705
+ $X2=3.332 $Y2=1.79
r84 26 27 13.0481 $w=1.68e-07 $l=2e-07 $layer=LI1_cond $X=3.225 $Y=1.705
+ $X2=3.025 $Y2=1.705
r85 25 34 38.4695 $w=3.3e-07 $l=2.2e-07 $layer=POLY_cond $X=2.86 $Y=1.285
+ $X2=2.86 $Y2=1.505
r86 24 25 72.64 $w=1.7e-07 $l=3.4e-07 $layer=licon1_POLY $count=2 $X=2.86
+ $Y=1.285 $X2=2.86 $Y2=1.285
r87 22 27 7.21222 $w=1.7e-07 $l=1.67183e-07 $layer=LI1_cond $X=2.895 $Y=1.62
+ $X2=3.025 $Y2=1.705
r88 22 24 14.8488 $w=2.58e-07 $l=3.35e-07 $layer=LI1_cond $X=2.895 $Y=1.62
+ $X2=2.895 $Y2=1.285
r89 21 24 11.7461 $w=2.58e-07 $l=2.65e-07 $layer=LI1_cond $X=2.895 $Y=1.02
+ $X2=2.895 $Y2=1.285
r90 17 21 6.91731 $w=2.1e-07 $l=1.74786e-07 $layer=LI1_cond $X=2.765 $Y=0.915
+ $X2=2.895 $Y2=1.02
r91 17 19 20.3333 $w=2.08e-07 $l=3.85e-07 $layer=LI1_cond $X=2.765 $Y=0.915
+ $X2=2.38 $Y2=0.915
r92 15 16 8.39207 $w=1.5e-07 $l=1.3e-07 $layer=POLY_cond $X=1.88 $Y=1.505
+ $X2=1.75 $Y2=1.505
r93 14 34 21.2229 $w=1.5e-07 $l=1.65e-07 $layer=POLY_cond $X=2.695 $Y=1.505
+ $X2=2.86 $Y2=1.505
r94 14 15 417.904 $w=1.5e-07 $l=8.15e-07 $layer=POLY_cond $X=2.695 $Y=1.505
+ $X2=1.88 $Y2=1.505
r95 10 16 21.2973 $w=1.9e-07 $l=9.87421e-08 $layer=POLY_cond $X=1.805 $Y=1.58
+ $X2=1.75 $Y2=1.505
r96 10 12 399.957 $w=1.5e-07 $l=7.8e-07 $layer=POLY_cond $X=1.805 $Y=1.58
+ $X2=1.805 $Y2=2.36
r97 7 16 87.2552 $w=1.9e-07 $l=3.61455e-07 $layer=POLY_cond $X=1.695 $Y=1.17
+ $X2=1.75 $Y2=1.505
r98 7 9 102.827 $w=1.5e-07 $l=3.2e-07 $layer=POLY_cond $X=1.695 $Y=1.17
+ $X2=1.695 $Y2=0.85
r99 2 30 600 $w=1.7e-07 $l=2.13834e-07 $layer=licon1_PDIFF $count=1 $X=3.18
+ $Y=2.405 $X2=3.32 $Y2=2.56
r100 1 19 182 $w=1.7e-07 $l=3.27605e-07 $layer=licon1_NDIFF $count=1 $X=2.24
+ $Y=0.64 $X2=2.38 $Y2=0.905
.ends

.subckt PM_SKY130_FD_SC_LP__SDFSTP_1%SCE 3 5 7 8 11 13 16 17 18 21 24 25 28 30
+ 31 34
r89 37 39 46.2115 $w=3.3e-07 $l=1.65e-07 $layer=POLY_cond $X=2.78 $Y=0.35
+ $X2=2.78 $Y2=0.515
r90 37 38 145.28 $w=1.7e-07 $l=1.7e-07 $layer=licon1_POLY $count=1 $X=2.78
+ $Y=0.35 $X2=2.78 $Y2=0.35
r91 34 37 27.1035 $w=3.3e-07 $l=1.55e-07 $layer=POLY_cond $X=2.78 $Y=0.195
+ $X2=2.78 $Y2=0.35
r92 31 38 10.4488 $w=3.73e-07 $l=3.4e-07 $layer=LI1_cond $X=3.12 $Y=0.452
+ $X2=2.78 $Y2=0.452
r93 30 38 4.30245 $w=3.73e-07 $l=1.4e-07 $layer=LI1_cond $X=2.64 $Y=0.452
+ $X2=2.78 $Y2=0.452
r94 26 28 120.5 $w=1.5e-07 $l=2.35e-07 $layer=POLY_cond $X=3.105 $Y=2.105
+ $X2=3.34 $Y2=2.105
r95 24 28 2.83073 $w=1.5e-07 $l=7.5e-08 $layer=POLY_cond $X=3.34 $Y=2.03
+ $X2=3.34 $Y2=2.105
r96 23 24 589.681 $w=1.5e-07 $l=1.15e-06 $layer=POLY_cond $X=3.34 $Y=0.88
+ $X2=3.34 $Y2=2.03
r97 19 26 2.83073 $w=1.5e-07 $l=7.5e-08 $layer=POLY_cond $X=3.105 $Y=2.18
+ $X2=3.105 $Y2=2.105
r98 19 21 279.457 $w=1.5e-07 $l=5.45e-07 $layer=POLY_cond $X=3.105 $Y=2.18
+ $X2=3.105 $Y2=2.725
r99 17 23 26.9307 $w=1.5e-07 $l=1.06066e-07 $layer=POLY_cond $X=3.265 $Y=0.805
+ $X2=3.34 $Y2=0.88
r100 17 18 164.085 $w=1.5e-07 $l=3.2e-07 $layer=POLY_cond $X=3.265 $Y=0.805
+ $X2=2.945 $Y2=0.805
r101 16 18 26.9307 $w=1.5e-07 $l=1.06066e-07 $layer=POLY_cond $X=2.87 $Y=0.73
+ $X2=2.945 $Y2=0.805
r102 16 39 110.245 $w=1.5e-07 $l=2.15e-07 $layer=POLY_cond $X=2.87 $Y=0.73
+ $X2=2.87 $Y2=0.515
r103 14 25 20.4101 $w=1.5e-07 $l=7.5e-08 $layer=POLY_cond $X=2.24 $Y=0.195
+ $X2=2.165 $Y2=0.195
r104 13 34 21.2229 $w=1.5e-07 $l=1.65e-07 $layer=POLY_cond $X=2.615 $Y=0.195
+ $X2=2.78 $Y2=0.195
r105 13 14 192.287 $w=1.5e-07 $l=3.75e-07 $layer=POLY_cond $X=2.615 $Y=0.195
+ $X2=2.24 $Y2=0.195
r106 9 25 5.30422 $w=1.5e-07 $l=7.5e-08 $layer=POLY_cond $X=2.165 $Y=0.27
+ $X2=2.165 $Y2=0.195
r107 9 11 297.404 $w=1.5e-07 $l=5.8e-07 $layer=POLY_cond $X=2.165 $Y=0.27
+ $X2=2.165 $Y2=0.85
r108 7 25 20.4101 $w=1.5e-07 $l=7.5e-08 $layer=POLY_cond $X=2.09 $Y=0.195
+ $X2=2.165 $Y2=0.195
r109 7 8 569.17 $w=1.5e-07 $l=1.11e-06 $layer=POLY_cond $X=2.09 $Y=0.195
+ $X2=0.98 $Y2=0.195
r110 3 5 774.277 $w=1.5e-07 $l=1.51e-06 $layer=POLY_cond $X=0.905 $Y=0.85
+ $X2=0.905 $Y2=2.36
r111 1 8 26.9307 $w=1.5e-07 $l=1.06066e-07 $layer=POLY_cond $X=0.905 $Y=0.27
+ $X2=0.98 $Y2=0.195
r112 1 3 297.404 $w=1.5e-07 $l=5.8e-07 $layer=POLY_cond $X=0.905 $Y=0.27
+ $X2=0.905 $Y2=0.85
.ends

.subckt PM_SKY130_FD_SC_LP__SDFSTP_1%CLK 3 7 9 10 11 16
c41 16 0 8.09203e-20 $X=4.08 $Y=1.32
r42 16 19 83.3779 $w=4.9e-07 $l=5.05e-07 $layer=POLY_cond $X=4.02 $Y=1.32
+ $X2=4.02 $Y2=1.825
r43 16 18 46.2534 $w=4.9e-07 $l=1.65e-07 $layer=POLY_cond $X=4.02 $Y=1.32
+ $X2=4.02 $Y2=1.155
r44 10 11 12.7285 $w=3.33e-07 $l=3.7e-07 $layer=LI1_cond $X=4.117 $Y=1.295
+ $X2=4.117 $Y2=1.665
r45 10 16 72.64 $w=1.7e-07 $l=3.4e-07 $layer=licon1_POLY $count=2 $X=4.08
+ $Y=1.32 $X2=4.08 $Y2=1.32
r46 9 10 12.7285 $w=3.33e-07 $l=3.7e-07 $layer=LI1_cond $X=4.117 $Y=0.925
+ $X2=4.117 $Y2=1.295
r47 7 19 466.617 $w=1.5e-07 $l=9.1e-07 $layer=POLY_cond $X=4.19 $Y=2.735
+ $X2=4.19 $Y2=1.825
r48 3 18 364.064 $w=1.5e-07 $l=7.1e-07 $layer=POLY_cond $X=3.85 $Y=0.445
+ $X2=3.85 $Y2=1.155
.ends

.subckt PM_SKY130_FD_SC_LP__SDFSTP_1%A_871_47# 1 2 9 13 17 21 23 25 29 34 35 38
+ 39 42 43 44 46 48 49 55 59 61 63 74
c173 61 0 1.0162e-19 $X=9.305 $Y=1.93
c174 48 0 1.35269e-19 $X=7.8 $Y=1.9
c175 46 0 1.76739e-19 $X=7.715 $Y=2.84
c176 44 0 6.84876e-20 $X=7.06 $Y=2.925
r177 73 74 6.12014 $w=3.3e-07 $l=3.5e-08 $layer=POLY_cond $X=9.485 $Y=1.93
+ $X2=9.52 $Y2=1.93
r178 67 68 75.1904 $w=3.3e-07 $l=4.3e-07 $layer=POLY_cond $X=5.6 $Y=1.68
+ $X2=6.03 $Y2=1.68
r179 62 73 31.475 $w=3.3e-07 $l=1.8e-07 $layer=POLY_cond $X=9.305 $Y=1.93
+ $X2=9.485 $Y2=1.93
r180 61 63 8.51388 $w=2.88e-07 $l=1.65e-07 $layer=LI1_cond $X=9.305 $Y=1.96
+ $X2=9.14 $Y2=1.96
r181 61 62 145.28 $w=1.7e-07 $l=1.7e-07 $layer=licon1_POLY $count=1 $X=9.305
+ $Y=1.93 $X2=9.305 $Y2=1.93
r182 55 57 3.98923 $w=2.58e-07 $l=9e-08 $layer=LI1_cond $X=4.87 $Y=2.86 $X2=4.87
+ $Y2=2.95
r183 49 52 3.77524 $w=2.88e-07 $l=9.5e-08 $layer=LI1_cond $X=4.515 $Y=0.35
+ $X2=4.515 $Y2=0.445
r184 48 63 87.4225 $w=1.68e-07 $l=1.34e-06 $layer=LI1_cond $X=7.8 $Y=1.9
+ $X2=9.14 $Y2=1.9
r185 45 48 6.81649 $w=1.7e-07 $l=1.20208e-07 $layer=LI1_cond $X=7.715 $Y=1.985
+ $X2=7.8 $Y2=1.9
r186 45 46 55.7807 $w=1.68e-07 $l=8.55e-07 $layer=LI1_cond $X=7.715 $Y=1.985
+ $X2=7.715 $Y2=2.84
r187 43 46 6.81649 $w=1.7e-07 $l=1.20208e-07 $layer=LI1_cond $X=7.63 $Y=2.925
+ $X2=7.715 $Y2=2.84
r188 43 44 37.1872 $w=1.68e-07 $l=5.7e-07 $layer=LI1_cond $X=7.63 $Y=2.925
+ $X2=7.06 $Y2=2.925
r189 42 44 6.81649 $w=1.7e-07 $l=1.20208e-07 $layer=LI1_cond $X=6.975 $Y=2.84
+ $X2=7.06 $Y2=2.925
r190 41 42 47.2995 $w=1.68e-07 $l=7.25e-07 $layer=LI1_cond $X=6.975 $Y=2.115
+ $X2=6.975 $Y2=2.84
r191 40 59 2.76166 $w=1.7e-07 $l=1.65e-07 $layer=LI1_cond $X=6.41 $Y=2.03
+ $X2=6.245 $Y2=2.03
r192 39 41 6.81649 $w=1.7e-07 $l=1.20208e-07 $layer=LI1_cond $X=6.89 $Y=2.03
+ $X2=6.975 $Y2=2.115
r193 39 40 31.3155 $w=1.68e-07 $l=4.8e-07 $layer=LI1_cond $X=6.89 $Y=2.03
+ $X2=6.41 $Y2=2.03
r194 37 59 3.70735 $w=2.5e-07 $l=1.18427e-07 $layer=LI1_cond $X=6.165 $Y=2.115
+ $X2=6.245 $Y2=2.03
r195 37 38 48.9305 $w=1.68e-07 $l=7.5e-07 $layer=LI1_cond $X=6.165 $Y=2.115
+ $X2=6.165 $Y2=2.865
r196 35 68 37.5952 $w=3.3e-07 $l=2.15e-07 $layer=POLY_cond $X=6.245 $Y=1.68
+ $X2=6.03 $Y2=1.68
r197 34 35 145.28 $w=1.7e-07 $l=1.7e-07 $layer=licon1_POLY $count=1 $X=6.245
+ $Y=1.68 $X2=6.245 $Y2=1.68
r198 32 59 3.70735 $w=2.5e-07 $l=8.5e-08 $layer=LI1_cond $X=6.245 $Y=1.945
+ $X2=6.245 $Y2=2.03
r199 32 34 9.25447 $w=3.28e-07 $l=2.65e-07 $layer=LI1_cond $X=6.245 $Y=1.945
+ $X2=6.245 $Y2=1.68
r200 30 67 23.6063 $w=3.3e-07 $l=1.35e-07 $layer=POLY_cond $X=5.465 $Y=1.68
+ $X2=5.6 $Y2=1.68
r201 29 30 145.28 $w=1.7e-07 $l=1.7e-07 $layer=licon1_POLY $count=1 $X=5.465
+ $Y=1.68 $X2=5.465 $Y2=1.68
r202 27 29 76.7121 $w=1.78e-07 $l=1.245e-06 $layer=LI1_cond $X=5.46 $Y=0.435
+ $X2=5.46 $Y2=1.68
r203 26 57 3.22376 $w=1.7e-07 $l=1.3e-07 $layer=LI1_cond $X=5 $Y=2.95 $X2=4.87
+ $Y2=2.95
r204 25 38 6.81649 $w=1.7e-07 $l=1.20208e-07 $layer=LI1_cond $X=6.08 $Y=2.95
+ $X2=6.165 $Y2=2.865
r205 25 26 70.4599 $w=1.68e-07 $l=1.08e-06 $layer=LI1_cond $X=6.08 $Y=2.95 $X2=5
+ $Y2=2.95
r206 24 49 3.86198 $w=1.7e-07 $l=1.45e-07 $layer=LI1_cond $X=4.66 $Y=0.35
+ $X2=4.515 $Y2=0.35
r207 23 27 6.82373 $w=1.7e-07 $l=1.25499e-07 $layer=LI1_cond $X=5.37 $Y=0.35
+ $X2=5.46 $Y2=0.435
r208 23 24 46.3209 $w=1.68e-07 $l=7.1e-07 $layer=LI1_cond $X=5.37 $Y=0.35
+ $X2=4.66 $Y2=0.35
r209 19 74 21.2229 $w=1.5e-07 $l=1.65e-07 $layer=POLY_cond $X=9.52 $Y=1.765
+ $X2=9.52 $Y2=1.93
r210 19 21 420.468 $w=1.5e-07 $l=8.2e-07 $layer=POLY_cond $X=9.52 $Y=1.765
+ $X2=9.52 $Y2=0.945
r211 15 73 21.2229 $w=1.5e-07 $l=1.65e-07 $layer=POLY_cond $X=9.485 $Y=2.095
+ $X2=9.485 $Y2=1.93
r212 15 17 220.489 $w=1.5e-07 $l=4.3e-07 $layer=POLY_cond $X=9.485 $Y=2.095
+ $X2=9.485 $Y2=2.525
r213 11 68 21.2229 $w=1.5e-07 $l=1.65e-07 $layer=POLY_cond $X=6.03 $Y=1.515
+ $X2=6.03 $Y2=1.68
r214 11 13 523.021 $w=1.5e-07 $l=1.02e-06 $layer=POLY_cond $X=6.03 $Y=1.515
+ $X2=6.03 $Y2=0.495
r215 7 67 21.2229 $w=1.5e-07 $l=1.65e-07 $layer=POLY_cond $X=5.6 $Y=1.845
+ $X2=5.6 $Y2=1.68
r216 7 9 348.681 $w=1.5e-07 $l=6.8e-07 $layer=POLY_cond $X=5.6 $Y=1.845 $X2=5.6
+ $Y2=2.525
r217 2 55 600 $w=1.7e-07 $l=5.10221e-07 $layer=licon1_PDIFF $count=1 $X=4.695
+ $Y=2.415 $X2=4.835 $Y2=2.86
r218 1 52 182 $w=1.7e-07 $l=2.71109e-07 $layer=licon1_NDIFF $count=1 $X=4.355
+ $Y=0.235 $X2=4.495 $Y2=0.445
.ends

.subckt PM_SKY130_FD_SC_LP__SDFSTP_1%A_1263_31# 1 2 7 9 10 12 13 14 18 19 24 27
+ 31 34 41 44
c78 14 0 1.41102e-19 $X=6.465 $Y=2.13
c79 10 0 6.84876e-20 $X=6.39 $Y=2.205
r80 34 36 5.76222 $w=2.58e-07 $l=1.3e-07 $layer=LI1_cond $X=7.185 $Y=0.825
+ $X2=7.185 $Y2=0.955
r81 29 31 36.5775 $w=2.28e-07 $l=7.3e-07 $layer=LI1_cond $X=7.345 $Y=1.775
+ $X2=7.345 $Y2=2.505
r82 27 45 46.2115 $w=3.3e-07 $l=1.65e-07 $layer=POLY_cond $X=6.785 $Y=1.68
+ $X2=6.785 $Y2=1.845
r83 27 44 46.2115 $w=3.3e-07 $l=1.65e-07 $layer=POLY_cond $X=6.785 $Y=1.68
+ $X2=6.785 $Y2=1.515
r84 26 27 145.28 $w=1.7e-07 $l=1.7e-07 $layer=licon1_POLY $count=1 $X=6.785
+ $Y=1.68 $X2=6.785 $Y2=1.68
r85 24 29 6.94918 $w=1.8e-07 $l=1.53542e-07 $layer=LI1_cond $X=7.23 $Y=1.685
+ $X2=7.345 $Y2=1.775
r86 24 26 27.4192 $w=1.78e-07 $l=4.45e-07 $layer=LI1_cond $X=7.23 $Y=1.685
+ $X2=6.785 $Y2=1.685
r87 22 41 15.7375 $w=3.3e-07 $l=9e-08 $layer=POLY_cond $X=6.635 $Y=0.98
+ $X2=6.725 $Y2=0.98
r88 22 38 42.841 $w=3.3e-07 $l=2.45e-07 $layer=POLY_cond $X=6.635 $Y=0.98
+ $X2=6.39 $Y2=0.98
r89 21 22 145.28 $w=1.7e-07 $l=1.7e-07 $layer=licon1_POLY $count=1 $X=6.635
+ $Y=0.98 $X2=6.635 $Y2=0.98
r90 19 36 1.19992 $w=2.4e-07 $l=1.3e-07 $layer=LI1_cond $X=7.055 $Y=0.955
+ $X2=7.185 $Y2=0.955
r91 19 21 20.1678 $w=2.38e-07 $l=4.2e-07 $layer=LI1_cond $X=7.055 $Y=0.955
+ $X2=6.635 $Y2=0.955
r92 18 45 107.681 $w=1.5e-07 $l=2.1e-07 $layer=POLY_cond $X=6.725 $Y=2.055
+ $X2=6.725 $Y2=1.845
r93 15 41 21.2229 $w=1.5e-07 $l=1.65e-07 $layer=POLY_cond $X=6.725 $Y=1.145
+ $X2=6.725 $Y2=0.98
r94 15 44 189.723 $w=1.5e-07 $l=3.7e-07 $layer=POLY_cond $X=6.725 $Y=1.145
+ $X2=6.725 $Y2=1.515
r95 13 18 26.9307 $w=1.5e-07 $l=1.06066e-07 $layer=POLY_cond $X=6.65 $Y=2.13
+ $X2=6.725 $Y2=2.055
r96 13 14 94.8617 $w=1.5e-07 $l=1.85e-07 $layer=POLY_cond $X=6.65 $Y=2.13
+ $X2=6.465 $Y2=2.13
r97 10 14 26.9307 $w=1.5e-07 $l=1.06066e-07 $layer=POLY_cond $X=6.39 $Y=2.205
+ $X2=6.465 $Y2=2.13
r98 10 12 102.827 $w=1.5e-07 $l=3.2e-07 $layer=POLY_cond $X=6.39 $Y=2.205
+ $X2=6.39 $Y2=2.525
r99 7 38 21.2229 $w=1.5e-07 $l=1.65e-07 $layer=POLY_cond $X=6.39 $Y=0.815
+ $X2=6.39 $Y2=0.98
r100 7 9 102.827 $w=1.5e-07 $l=3.2e-07 $layer=POLY_cond $X=6.39 $Y=0.815
+ $X2=6.39 $Y2=0.495
r101 2 31 600 $w=1.7e-07 $l=2.504e-07 $layer=licon1_PDIFF $count=1 $X=7.225
+ $Y=2.315 $X2=7.365 $Y2=2.505
r102 1 34 182 $w=1.7e-07 $l=2.54951e-07 $layer=licon1_NDIFF $count=1 $X=7.095
+ $Y=0.625 $X2=7.22 $Y2=0.825
.ends

.subckt PM_SKY130_FD_SC_LP__SDFSTP_1%A_1135_57# 1 2 7 9 11 12 14 17 19 21 23 26
+ 30 33 36 38 43 44 45 54 56
c115 36 0 1.41102e-19 $X=5.815 $Y=2.525
c116 11 0 3.12009e-19 $X=7.235 $Y=2.055
r117 49 59 46.2115 $w=3.3e-07 $l=1.65e-07 $layer=POLY_cond $X=8.53 $Y=1.54
+ $X2=8.53 $Y2=1.705
r118 49 56 15.7375 $w=3.3e-07 $l=9e-08 $layer=POLY_cond $X=8.53 $Y=1.54 $X2=8.53
+ $Y2=1.45
r119 48 49 145.28 $w=1.7e-07 $l=1.7e-07 $layer=licon1_POLY $count=1 $X=8.53
+ $Y=1.54 $X2=8.53 $Y2=1.54
r120 45 48 7.15912 $w=3.28e-07 $l=2.05e-07 $layer=LI1_cond $X=8.53 $Y=1.335
+ $X2=8.53 $Y2=1.54
r121 42 54 19.2347 $w=3.3e-07 $l=1.1e-07 $layer=POLY_cond $X=7.325 $Y=1.33
+ $X2=7.435 $Y2=1.33
r122 42 51 15.7375 $w=3.3e-07 $l=9e-08 $layer=POLY_cond $X=7.325 $Y=1.33
+ $X2=7.235 $Y2=1.33
r123 41 42 145.28 $w=1.7e-07 $l=1.7e-07 $layer=licon1_POLY $count=1 $X=7.325
+ $Y=1.33 $X2=7.325 $Y2=1.33
r124 39 44 1.34256 $w=1.8e-07 $l=9e-08 $layer=LI1_cond $X=5.9 $Y=1.335 $X2=5.81
+ $Y2=1.335
r125 39 41 87.803 $w=1.78e-07 $l=1.425e-06 $layer=LI1_cond $X=5.9 $Y=1.335
+ $X2=7.325 $Y2=1.335
r126 38 45 4.28565 $w=1.8e-07 $l=1.65e-07 $layer=LI1_cond $X=8.365 $Y=1.335
+ $X2=8.53 $Y2=1.335
r127 38 41 64.0808 $w=1.78e-07 $l=1.04e-06 $layer=LI1_cond $X=8.365 $Y=1.335
+ $X2=7.325 $Y2=1.335
r128 34 44 5.16603 $w=1.8e-07 $l=9e-08 $layer=LI1_cond $X=5.81 $Y=1.425 $X2=5.81
+ $Y2=1.335
r129 34 36 67.7778 $w=1.78e-07 $l=1.1e-06 $layer=LI1_cond $X=5.81 $Y=1.425
+ $X2=5.81 $Y2=2.525
r130 33 44 5.16603 $w=1.8e-07 $l=9e-08 $layer=LI1_cond $X=5.81 $Y=1.245 $X2=5.81
+ $Y2=1.335
r131 33 43 32.0404 $w=1.78e-07 $l=5.2e-07 $layer=LI1_cond $X=5.81 $Y=1.245
+ $X2=5.81 $Y2=0.725
r132 28 43 5.68054 $w=1.98e-07 $l=1e-07 $layer=LI1_cond $X=5.82 $Y=0.625
+ $X2=5.82 $Y2=0.725
r133 28 30 7.48636 $w=1.98e-07 $l=1.35e-07 $layer=LI1_cond $X=5.82 $Y=0.625
+ $X2=5.82 $Y2=0.49
r134 24 26 43.5851 $w=1.5e-07 $l=8.5e-08 $layer=POLY_cond $X=7.15 $Y=2.13
+ $X2=7.235 $Y2=2.13
r135 21 23 138.173 $w=1.5e-07 $l=4.3e-07 $layer=POLY_cond $X=9.16 $Y=1.375
+ $X2=9.16 $Y2=0.945
r136 20 56 21.2229 $w=1.5e-07 $l=1.65e-07 $layer=POLY_cond $X=8.695 $Y=1.45
+ $X2=8.53 $Y2=1.45
r137 19 21 26.9307 $w=1.5e-07 $l=1.06066e-07 $layer=POLY_cond $X=9.085 $Y=1.45
+ $X2=9.16 $Y2=1.375
r138 19 20 199.979 $w=1.5e-07 $l=3.9e-07 $layer=POLY_cond $X=9.085 $Y=1.45
+ $X2=8.695 $Y2=1.45
r139 17 59 312.787 $w=1.5e-07 $l=6.1e-07 $layer=POLY_cond $X=8.44 $Y=2.315
+ $X2=8.44 $Y2=1.705
r140 12 54 21.2229 $w=1.5e-07 $l=1.65e-07 $layer=POLY_cond $X=7.435 $Y=1.165
+ $X2=7.435 $Y2=1.33
r141 12 14 106.04 $w=1.5e-07 $l=3.3e-07 $layer=POLY_cond $X=7.435 $Y=1.165
+ $X2=7.435 $Y2=0.835
r142 11 26 2.83073 $w=1.5e-07 $l=7.5e-08 $layer=POLY_cond $X=7.235 $Y=2.055
+ $X2=7.235 $Y2=2.13
r143 10 51 21.2229 $w=1.5e-07 $l=1.65e-07 $layer=POLY_cond $X=7.235 $Y=1.495
+ $X2=7.235 $Y2=1.33
r144 10 11 287.149 $w=1.5e-07 $l=5.6e-07 $layer=POLY_cond $X=7.235 $Y=1.495
+ $X2=7.235 $Y2=2.055
r145 7 24 2.83073 $w=1.5e-07 $l=7.5e-08 $layer=POLY_cond $X=7.15 $Y=2.205
+ $X2=7.15 $Y2=2.13
r146 7 9 102.827 $w=1.5e-07 $l=3.2e-07 $layer=POLY_cond $X=7.15 $Y=2.205
+ $X2=7.15 $Y2=2.525
r147 2 36 600 $w=1.7e-07 $l=2.71109e-07 $layer=licon1_PDIFF $count=1 $X=5.675
+ $Y=2.315 $X2=5.815 $Y2=2.525
r148 1 30 182 $w=1.7e-07 $l=2.65942e-07 $layer=licon1_NDIFF $count=1 $X=5.675
+ $Y=0.285 $X2=5.815 $Y2=0.49
.ends

.subckt PM_SKY130_FD_SC_LP__SDFSTP_1%SET_B 3 8 11 12 16 18 20 22 23 25 26 28 29
+ 30 31 32 33 34 42 47
c101 25 0 1.65899e-19 $X=11.495 $Y=1.67
r102 42 45 46.2115 $w=3.3e-07 $l=1.65e-07 $layer=POLY_cond $X=8.035 $Y=0.35
+ $X2=8.035 $Y2=0.515
r103 42 43 145.28 $w=1.7e-07 $l=1.7e-07 $layer=licon1_POLY $count=1 $X=8.035
+ $Y=0.35 $X2=8.035 $Y2=0.35
r104 33 34 14.7513 $w=3.73e-07 $l=4.8e-07 $layer=LI1_cond $X=9.84 $Y=0.452
+ $X2=10.32 $Y2=0.452
r105 32 33 14.7513 $w=3.73e-07 $l=4.8e-07 $layer=LI1_cond $X=9.36 $Y=0.452
+ $X2=9.84 $Y2=0.452
r106 31 32 14.7513 $w=3.73e-07 $l=4.8e-07 $layer=LI1_cond $X=8.88 $Y=0.452
+ $X2=9.36 $Y2=0.452
r107 30 31 14.7513 $w=3.73e-07 $l=4.8e-07 $layer=LI1_cond $X=8.4 $Y=0.452
+ $X2=8.88 $Y2=0.452
r108 30 43 11.2171 $w=3.73e-07 $l=3.65e-07 $layer=LI1_cond $X=8.4 $Y=0.452
+ $X2=8.035 $Y2=0.452
r109 29 43 3.53416 $w=3.73e-07 $l=1.15e-07 $layer=LI1_cond $X=7.92 $Y=0.452
+ $X2=8.035 $Y2=0.452
r110 28 34 3.99514 $w=3.73e-07 $l=1.3e-07 $layer=LI1_cond $X=10.45 $Y=0.452
+ $X2=10.32 $Y2=0.452
r111 26 48 46.2115 $w=3.3e-07 $l=1.65e-07 $layer=POLY_cond $X=11.495 $Y=1.67
+ $X2=11.495 $Y2=1.835
r112 26 47 40.6903 $w=3.3e-07 $l=1.65e-07 $layer=POLY_cond $X=11.495 $Y=1.67
+ $X2=11.495 $Y2=1.505
r113 25 26 145.28 $w=1.7e-07 $l=1.7e-07 $layer=licon1_POLY $count=1 $X=11.495
+ $Y=1.67 $X2=11.495 $Y2=1.67
r114 23 25 53.9141 $w=1.78e-07 $l=8.75e-07 $layer=LI1_cond $X=10.62 $Y=1.675
+ $X2=11.495 $Y2=1.675
r115 22 23 6.82373 $w=1.8e-07 $l=1.25499e-07 $layer=LI1_cond $X=10.535 $Y=1.585
+ $X2=10.62 $Y2=1.675
r116 21 28 8.1532 $w=3.75e-07 $l=2.26548e-07 $layer=LI1_cond $X=10.535 $Y=0.64
+ $X2=10.45 $Y2=0.452
r117 21 22 61.6524 $w=1.68e-07 $l=9.45e-07 $layer=LI1_cond $X=10.535 $Y=0.64
+ $X2=10.535 $Y2=1.585
r118 18 19 82.6961 $w=2.04e-07 $l=3.5e-07 $layer=POLY_cond $X=7.595 $Y=1.735
+ $X2=7.945 $Y2=1.735
r119 16 48 405.085 $w=1.5e-07 $l=7.9e-07 $layer=POLY_cond $X=11.44 $Y=2.625
+ $X2=11.44 $Y2=1.835
r120 12 20 37.1337 $w=1.8e-07 $l=9e-08 $layer=POLY_cond $X=11.42 $Y=1.245
+ $X2=11.42 $Y2=1.155
r121 12 47 101.065 $w=1.8e-07 $l=2.6e-07 $layer=POLY_cond $X=11.42 $Y=1.245
+ $X2=11.42 $Y2=1.505
r122 11 20 102.827 $w=1.5e-07 $l=3.2e-07 $layer=POLY_cond $X=11.405 $Y=0.835
+ $X2=11.405 $Y2=1.155
r123 8 45 164.085 $w=1.5e-07 $l=3.2e-07 $layer=POLY_cond $X=7.945 $Y=0.835
+ $X2=7.945 $Y2=0.515
r124 6 19 10.0333 $w=1.5e-07 $l=1.8e-07 $layer=POLY_cond $X=7.945 $Y=1.555
+ $X2=7.945 $Y2=1.735
r125 6 8 369.191 $w=1.5e-07 $l=7.2e-07 $layer=POLY_cond $X=7.945 $Y=1.555
+ $X2=7.945 $Y2=0.835
r126 1 18 10.0333 $w=1.5e-07 $l=1.5e-07 $layer=POLY_cond $X=7.595 $Y=1.885
+ $X2=7.595 $Y2=1.735
r127 1 3 328.17 $w=1.5e-07 $l=6.4e-07 $layer=POLY_cond $X=7.595 $Y=1.885
+ $X2=7.595 $Y2=2.525
.ends

.subckt PM_SKY130_FD_SC_LP__SDFSTP_1%A_702_47# 1 2 7 9 11 14 16 18 21 22 23 26
+ 30 32 34 36 37 38 41 43 44 47 50 52 53 56 59 60 63 70
c180 59 0 3.05811e-20 $X=4.67 $Y=2.09
c181 34 0 1.0162e-19 $X=10.03 $Y=1.785
c182 14 0 1.88568e-19 $X=4.62 $Y=2.735
r183 69 70 7.82892 $w=3.18e-07 $l=1.65e-07 $layer=LI1_cond $X=3.86 $Y=2.155
+ $X2=4.025 $Y2=2.155
r184 66 69 5.94228 $w=3.18e-07 $l=1.65e-07 $layer=LI1_cond $X=3.695 $Y=2.155
+ $X2=3.86 $Y2=2.155
r185 63 65 8.46729 $w=3.08e-07 $l=1.65e-07 $layer=LI1_cond $X=3.625 $Y=0.445
+ $X2=3.625 $Y2=0.61
r186 59 70 37.6507 $w=1.88e-07 $l=6.45e-07 $layer=LI1_cond $X=4.67 $Y=2.09
+ $X2=4.025 $Y2=2.09
r187 59 60 145.28 $w=1.7e-07 $l=1.7e-07 $layer=licon1_POLY $count=1 $X=4.67
+ $Y=2.09 $X2=4.67 $Y2=2.09
r188 56 66 4.44149 $w=1.7e-07 $l=1.6e-07 $layer=LI1_cond $X=3.695 $Y=1.995
+ $X2=3.695 $Y2=2.155
r189 56 65 90.3583 $w=1.68e-07 $l=1.385e-06 $layer=LI1_cond $X=3.695 $Y=1.995
+ $X2=3.695 $Y2=0.61
r190 51 60 2.62292 $w=3.3e-07 $l=1.5e-08 $layer=POLY_cond $X=4.67 $Y=2.105
+ $X2=4.67 $Y2=2.09
r191 51 52 13.5877 $w=2.4e-07 $l=7.5e-08 $layer=POLY_cond $X=4.67 $Y=2.105
+ $X2=4.67 $Y2=2.18
r192 49 60 142.512 $w=3.3e-07 $l=8.15e-07 $layer=POLY_cond $X=4.67 $Y=1.275
+ $X2=4.67 $Y2=2.09
r193 49 50 13.5877 $w=2.4e-07 $l=7.5e-08 $layer=POLY_cond $X=4.67 $Y=1.275
+ $X2=4.67 $Y2=1.2
r194 45 47 153.83 $w=1.5e-07 $l=3e-07 $layer=POLY_cond $X=4.28 $Y=0.84 $X2=4.58
+ $Y2=0.84
r195 43 54 50.2292 $w=1.59e-07 $l=1.68953e-07 $layer=POLY_cond $X=10.52 $Y=1.875
+ $X2=10.512 $Y2=1.71
r196 43 44 615.319 $w=1.5e-07 $l=1.2e-06 $layer=POLY_cond $X=10.52 $Y=1.875
+ $X2=10.52 $Y2=3.075
r197 39 54 22.9461 $w=1.59e-07 $l=7.84219e-08 $layer=POLY_cond $X=10.505
+ $Y=1.635 $X2=10.512 $Y2=1.71
r198 39 41 410.213 $w=1.5e-07 $l=8e-07 $layer=POLY_cond $X=10.505 $Y=1.635
+ $X2=10.505 $Y2=0.835
r199 37 54 4.22461 $w=1.5e-07 $l=8.2e-08 $layer=POLY_cond $X=10.43 $Y=1.71
+ $X2=10.512 $Y2=1.71
r200 37 38 166.649 $w=1.5e-07 $l=3.25e-07 $layer=POLY_cond $X=10.43 $Y=1.71
+ $X2=10.105 $Y2=1.71
r201 34 38 26.9307 $w=1.5e-07 $l=1.06066e-07 $layer=POLY_cond $X=10.03 $Y=1.785
+ $X2=10.105 $Y2=1.71
r202 34 36 170.307 $w=1.5e-07 $l=5.3e-07 $layer=POLY_cond $X=10.03 $Y=1.785
+ $X2=10.03 $Y2=2.315
r203 33 53 20.4101 $w=1.5e-07 $l=7.5e-08 $layer=POLY_cond $X=6.105 $Y=3.15
+ $X2=6.03 $Y2=3.15
r204 32 44 26.9307 $w=1.5e-07 $l=1.06066e-07 $layer=POLY_cond $X=10.445 $Y=3.15
+ $X2=10.52 $Y2=3.075
r205 32 33 2225.4 $w=1.5e-07 $l=4.34e-06 $layer=POLY_cond $X=10.445 $Y=3.15
+ $X2=6.105 $Y2=3.15
r206 28 53 5.30422 $w=1.5e-07 $l=7.5e-08 $layer=POLY_cond $X=6.03 $Y=3.075
+ $X2=6.03 $Y2=3.15
r207 28 30 282.021 $w=1.5e-07 $l=5.5e-07 $layer=POLY_cond $X=6.03 $Y=3.075
+ $X2=6.03 $Y2=2.525
r208 24 26 323.043 $w=1.5e-07 $l=6.3e-07 $layer=POLY_cond $X=5.6 $Y=1.125
+ $X2=5.6 $Y2=0.495
r209 22 53 20.4101 $w=1.5e-07 $l=7.5e-08 $layer=POLY_cond $X=5.955 $Y=3.15
+ $X2=6.03 $Y2=3.15
r210 22 23 394.83 $w=1.5e-07 $l=7.7e-07 $layer=POLY_cond $X=5.955 $Y=3.15
+ $X2=5.185 $Y2=3.15
r211 21 23 26.9307 $w=1.5e-07 $l=1.06066e-07 $layer=POLY_cond $X=5.11 $Y=3.075
+ $X2=5.185 $Y2=3.15
r212 20 21 420.468 $w=1.5e-07 $l=8.2e-07 $layer=POLY_cond $X=5.11 $Y=2.255
+ $X2=5.11 $Y2=3.075
r213 19 52 12.1617 $w=1.5e-07 $l=1.65e-07 $layer=POLY_cond $X=4.835 $Y=2.18
+ $X2=4.67 $Y2=2.18
r214 18 20 26.9307 $w=1.5e-07 $l=1.06066e-07 $layer=POLY_cond $X=5.035 $Y=2.18
+ $X2=5.11 $Y2=2.255
r215 18 19 102.553 $w=1.5e-07 $l=2e-07 $layer=POLY_cond $X=5.035 $Y=2.18
+ $X2=4.835 $Y2=2.18
r216 17 50 12.1617 $w=1.5e-07 $l=1.65e-07 $layer=POLY_cond $X=4.835 $Y=1.2
+ $X2=4.67 $Y2=1.2
r217 16 24 26.9307 $w=1.5e-07 $l=1.06066e-07 $layer=POLY_cond $X=5.525 $Y=1.2
+ $X2=5.6 $Y2=1.125
r218 16 17 353.809 $w=1.5e-07 $l=6.9e-07 $layer=POLY_cond $X=5.525 $Y=1.2
+ $X2=4.835 $Y2=1.2
r219 12 52 13.5877 $w=2.4e-07 $l=9.68246e-08 $layer=POLY_cond $X=4.62 $Y=2.255
+ $X2=4.67 $Y2=2.18
r220 12 14 246.128 $w=1.5e-07 $l=4.8e-07 $layer=POLY_cond $X=4.62 $Y=2.255
+ $X2=4.62 $Y2=2.735
r221 11 50 13.5877 $w=2.4e-07 $l=1.21861e-07 $layer=POLY_cond $X=4.58 $Y=1.125
+ $X2=4.67 $Y2=1.2
r222 10 47 2.83073 $w=1.5e-07 $l=7.5e-08 $layer=POLY_cond $X=4.58 $Y=0.915
+ $X2=4.58 $Y2=0.84
r223 10 11 107.681 $w=1.5e-07 $l=2.1e-07 $layer=POLY_cond $X=4.58 $Y=0.915
+ $X2=4.58 $Y2=1.125
r224 7 45 2.83073 $w=1.5e-07 $l=7.5e-08 $layer=POLY_cond $X=4.28 $Y=0.765
+ $X2=4.28 $Y2=0.84
r225 7 9 102.827 $w=1.5e-07 $l=3.2e-07 $layer=POLY_cond $X=4.28 $Y=0.765
+ $X2=4.28 $Y2=0.445
r226 2 69 600 $w=1.7e-07 $l=1.97864e-07 $layer=licon1_PDIFF $count=1 $X=3.715
+ $Y=2.105 $X2=3.86 $Y2=2.23
r227 1 63 182 $w=1.7e-07 $l=2.65236e-07 $layer=licon1_NDIFF $count=1 $X=3.51
+ $Y=0.235 $X2=3.635 $Y2=0.445
.ends

.subckt PM_SKY130_FD_SC_LP__SDFSTP_1%A_2158_231# 1 2 9 13 14 17 21 23 27 29 31
c68 9 0 1.29862e-19 $X=11.01 $Y=2.625
r69 25 27 53.8545 $w=2.58e-07 $l=1.215e-06 $layer=LI1_cond $X=12.64 $Y=1.415
+ $X2=12.64 $Y2=2.63
r70 24 29 8.26956 $w=1.8e-07 $l=1.65e-07 $layer=LI1_cond $X=12.325 $Y=1.325
+ $X2=12.16 $Y2=1.325
r71 23 25 7.11373 $w=1.8e-07 $l=1.69115e-07 $layer=LI1_cond $X=12.51 $Y=1.325
+ $X2=12.64 $Y2=1.415
r72 23 24 11.399 $w=1.78e-07 $l=1.85e-07 $layer=LI1_cond $X=12.51 $Y=1.325
+ $X2=12.325 $Y2=1.325
r73 19 29 0.718145 $w=3.3e-07 $l=9e-08 $layer=LI1_cond $X=12.16 $Y=1.235
+ $X2=12.16 $Y2=1.325
r74 19 21 14.1436 $w=3.28e-07 $l=4.05e-07 $layer=LI1_cond $X=12.16 $Y=1.235
+ $X2=12.16 $Y2=0.83
r75 17 32 46.2115 $w=3.3e-07 $l=1.65e-07 $layer=POLY_cond $X=10.955 $Y=1.32
+ $X2=10.955 $Y2=1.485
r76 17 31 46.2115 $w=3.3e-07 $l=1.65e-07 $layer=POLY_cond $X=10.955 $Y=1.32
+ $X2=10.955 $Y2=1.155
r77 16 17 145.28 $w=1.7e-07 $l=1.7e-07 $layer=licon1_POLY $count=1 $X=10.955
+ $Y=1.32 $X2=10.955 $Y2=1.32
r78 14 29 8.26956 $w=1.8e-07 $l=1.65e-07 $layer=LI1_cond $X=11.995 $Y=1.325
+ $X2=12.16 $Y2=1.325
r79 14 16 64.0808 $w=1.78e-07 $l=1.04e-06 $layer=LI1_cond $X=11.995 $Y=1.325
+ $X2=10.955 $Y2=1.325
r80 13 31 102.827 $w=1.5e-07 $l=3.2e-07 $layer=POLY_cond $X=11.045 $Y=0.835
+ $X2=11.045 $Y2=1.155
r81 9 32 584.553 $w=1.5e-07 $l=1.14e-06 $layer=POLY_cond $X=11.01 $Y=2.625
+ $X2=11.01 $Y2=1.485
r82 2 27 600 $w=1.7e-07 $l=2.7627e-07 $layer=licon1_PDIFF $count=1 $X=12.465
+ $Y=2.415 $X2=12.605 $Y2=2.63
r83 1 21 182 $w=1.7e-07 $l=2.65942e-07 $layer=licon1_NDIFF $count=1 $X=12.02
+ $Y=0.625 $X2=12.16 $Y2=0.83
.ends

.subckt PM_SKY130_FD_SC_LP__SDFSTP_1%A_1912_463# 1 2 3 12 16 18 22 24 26 28 30
+ 31 32 34 36 40 42 46 47 51
c110 47 0 1.65899e-19 $X=12.255 $Y=1.75
c111 34 0 1.29862e-19 $X=10.115 $Y=0.92
r112 46 47 72.64 $w=1.7e-07 $l=3.4e-07 $layer=licon1_POLY $count=2 $X=12.255
+ $Y=1.75 $X2=12.255 $Y2=1.75
r113 44 46 8.52808 $w=2.48e-07 $l=1.85e-07 $layer=LI1_cond $X=12.215 $Y=1.935
+ $X2=12.215 $Y2=1.75
r114 43 51 4.9928 $w=2.5e-07 $l=1.2e-07 $layer=LI1_cond $X=11.76 $Y=2.095
+ $X2=11.64 $Y2=2.095
r115 42 44 6.95106 $w=3.2e-07 $l=2.13542e-07 $layer=LI1_cond $X=12.09 $Y=2.095
+ $X2=12.215 $Y2=1.935
r116 42 43 11.8846 $w=3.18e-07 $l=3.3e-07 $layer=LI1_cond $X=12.09 $Y=2.095
+ $X2=11.76 $Y2=2.095
r117 38 51 1.48997 $w=2.4e-07 $l=1.6e-07 $layer=LI1_cond $X=11.64 $Y=2.255
+ $X2=11.64 $Y2=2.095
r118 38 40 18.0069 $w=2.38e-07 $l=3.75e-07 $layer=LI1_cond $X=11.64 $Y=2.255
+ $X2=11.64 $Y2=2.63
r119 37 50 7.86733 $w=1.8e-07 $l=3.2e-07 $layer=LI1_cond $X=10.28 $Y=2.025
+ $X2=9.96 $Y2=2.025
r120 36 51 4.9928 $w=2.5e-07 $l=1.50997e-07 $layer=LI1_cond $X=11.52 $Y=2.025
+ $X2=11.64 $Y2=2.095
r121 36 37 76.404 $w=1.78e-07 $l=1.24e-06 $layer=LI1_cond $X=11.52 $Y=2.025
+ $X2=10.28 $Y2=2.025
r122 32 50 2.21269 $w=6.4e-07 $l=9e-08 $layer=LI1_cond $X=9.96 $Y=1.935 $X2=9.96
+ $Y2=2.025
r123 32 34 18.9691 $w=6.38e-07 $l=1.015e-06 $layer=LI1_cond $X=9.96 $Y=1.935
+ $X2=9.96 $Y2=0.92
r124 29 47 47.1618 $w=3.75e-07 $l=3.18e-07 $layer=POLY_cond $X=12.277 $Y=2.068
+ $X2=12.277 $Y2=1.75
r125 29 30 48.4185 $w=3.75e-07 $l=1.87e-07 $layer=POLY_cond $X=12.277 $Y=2.068
+ $X2=12.277 $Y2=2.255
r126 27 47 3.70769 $w=3.75e-07 $l=2.5e-08 $layer=POLY_cond $X=12.277 $Y=1.725
+ $X2=12.277 $Y2=1.75
r127 27 28 12.5355 $w=2.62e-07 $l=1.42653e-07 $layer=POLY_cond $X=12.277
+ $Y=1.725 $X2=12.167 $Y2=1.65
r128 24 31 20.4101 $w=1.5e-07 $l=7.74597e-08 $layer=POLY_cond $X=13.34 $Y=1.725
+ $X2=13.335 $Y2=1.65
r129 24 26 138.173 $w=1.5e-07 $l=4.3e-07 $layer=POLY_cond $X=13.34 $Y=1.725
+ $X2=13.34 $Y2=2.155
r130 20 31 20.4101 $w=1.5e-07 $l=7.74597e-08 $layer=POLY_cond $X=13.33 $Y=1.575
+ $X2=13.335 $Y2=1.65
r131 20 22 307.66 $w=1.5e-07 $l=6e-07 $layer=POLY_cond $X=13.33 $Y=1.575
+ $X2=13.33 $Y2=0.975
r132 19 28 13.4976 $w=1.5e-07 $l=2.98e-07 $layer=POLY_cond $X=12.465 $Y=1.65
+ $X2=12.167 $Y2=1.65
r133 18 31 5.30422 $w=1.5e-07 $l=8e-08 $layer=POLY_cond $X=13.255 $Y=1.65
+ $X2=13.335 $Y2=1.65
r134 18 19 405.085 $w=1.5e-07 $l=7.9e-07 $layer=POLY_cond $X=13.255 $Y=1.65
+ $X2=12.465 $Y2=1.65
r135 16 30 189.723 $w=1.5e-07 $l=3.7e-07 $layer=POLY_cond $X=12.39 $Y=2.625
+ $X2=12.39 $Y2=2.255
r136 10 28 12.5355 $w=2.62e-07 $l=2.56776e-07 $layer=POLY_cond $X=11.945
+ $Y=1.575 $X2=12.167 $Y2=1.65
r137 10 12 379.447 $w=1.5e-07 $l=7.4e-07 $layer=POLY_cond $X=11.945 $Y=1.575
+ $X2=11.945 $Y2=0.835
r138 3 40 600 $w=1.7e-07 $l=2.7627e-07 $layer=licon1_PDIFF $count=1 $X=11.515
+ $Y=2.415 $X2=11.655 $Y2=2.63
r139 2 50 600 $w=1.7e-07 $l=4.02803e-07 $layer=licon1_PDIFF $count=1 $X=9.56
+ $Y=2.315 $X2=9.815 $Y2=2.02
r140 1 34 91 $w=1.7e-07 $l=6.50999e-07 $layer=licon1_NDIFF $count=2 $X=9.595
+ $Y=0.625 $X2=10.115 $Y2=0.92
.ends

.subckt PM_SKY130_FD_SC_LP__SDFSTP_1%A_2598_153# 1 2 9 12 16 20 24 25 27 29
r42 25 30 46.504 $w=3.55e-07 $l=1.65e-07 $layer=POLY_cond $X=13.822 $Y=1.46
+ $X2=13.822 $Y2=1.625
r43 25 29 46.504 $w=3.55e-07 $l=1.65e-07 $layer=POLY_cond $X=13.822 $Y=1.46
+ $X2=13.822 $Y2=1.295
r44 24 25 145.28 $w=1.7e-07 $l=1.7e-07 $layer=licon1_POLY $count=1 $X=13.81
+ $Y=1.46 $X2=13.81 $Y2=1.46
r45 22 27 0.911997 $w=3.3e-07 $l=1.53e-07 $layer=LI1_cond $X=13.255 $Y=1.46
+ $X2=13.102 $Y2=1.46
r46 22 24 19.382 $w=3.28e-07 $l=5.55e-07 $layer=LI1_cond $X=13.255 $Y=1.46
+ $X2=13.81 $Y2=1.46
r47 18 27 5.7047 $w=2.92e-07 $l=1.65e-07 $layer=LI1_cond $X=13.102 $Y=1.625
+ $X2=13.102 $Y2=1.46
r48 18 20 13.4137 $w=3.03e-07 $l=3.55e-07 $layer=LI1_cond $X=13.102 $Y=1.625
+ $X2=13.102 $Y2=1.98