* File: sky130_fd_sc_lp__busdriver2_20.pex.spice
* Created: Fri Aug 28 10:13:08 2020
* Program "Calibre xRC"
* Version "v2018.4_34.26"
* Nominal Temperature: 27C
* Circuit Temperature: 27C
* 
.subckt PM_SKY130_FD_SC_LP__BUSDRIVER2_20%TE_B 1 3 6 8 10 12 15 17 18 25
c40 15 0 5.76855e-20 $X=0.925 $Y=2.465
r41 24 25 30.474 $w=3.3e-07 $l=7.5e-08 $layer=POLY_cond $X=0.495 $Y=1.35
+ $X2=0.57 $Y2=1.35
r42 21 24 37.5952 $w=3.3e-07 $l=2.15e-07 $layer=POLY_cond $X=0.28 $Y=1.35
+ $X2=0.495 $Y2=1.35
r43 18 21 145.28 $w=1.7e-07 $l=1.7e-07 $layer=licon1_POLY $count=1 $X=0.28
+ $Y=1.35 $X2=0.28 $Y2=1.35
r44 13 17 20.4101 $w=1.5e-07 $l=7.5e-08 $layer=POLY_cond $X=0.925 $Y=1.335
+ $X2=0.925 $Y2=1.26
r45 13 15 579.426 $w=1.5e-07 $l=1.13e-06 $layer=POLY_cond $X=0.925 $Y=1.335
+ $X2=0.925 $Y2=2.465
r46 10 17 20.4101 $w=1.5e-07 $l=7.5e-08 $layer=POLY_cond $X=0.925 $Y=1.185
+ $X2=0.925 $Y2=1.26
r47 10 12 170.307 $w=1.5e-07 $l=5.3e-07 $layer=POLY_cond $X=0.925 $Y=1.185
+ $X2=0.925 $Y2=0.655
r48 8 17 5.30422 $w=1.5e-07 $l=7.5e-08 $layer=POLY_cond $X=0.85 $Y=1.26
+ $X2=0.925 $Y2=1.26
r49 8 25 143.574 $w=1.5e-07 $l=2.8e-07 $layer=POLY_cond $X=0.85 $Y=1.26 $X2=0.57
+ $Y2=1.26
r50 4 24 21.2229 $w=1.5e-07 $l=1.65e-07 $layer=POLY_cond $X=0.495 $Y=1.515
+ $X2=0.495 $Y2=1.35
r51 4 6 487.128 $w=1.5e-07 $l=9.5e-07 $layer=POLY_cond $X=0.495 $Y=1.515
+ $X2=0.495 $Y2=2.465
r52 1 24 21.2229 $w=1.5e-07 $l=1.65e-07 $layer=POLY_cond $X=0.495 $Y=1.185
+ $X2=0.495 $Y2=1.35
r53 1 3 170.307 $w=1.5e-07 $l=5.3e-07 $layer=POLY_cond $X=0.495 $Y=1.185
+ $X2=0.495 $Y2=0.655
.ends

.subckt PM_SKY130_FD_SC_LP__BUSDRIVER2_20%A_114_47# 1 2 9 13 17 19 20 23 27 29
+ 33 35 37 38 39 40 42 43 45 46 48 49 51 52 53 54 56 57 59 60 62 64 65 67 69 70
+ 72 74 75 77 79 80 82 84 85 87 89 90 92 94 99 104 105 106 107 108 109 112 116
+ 122 125 126 131 141
c275 141 0 1.98224e-19 $X=6.15 $Y=1.16
c276 72 0 7.60313e-20 $X=7.47 $Y=0.985
c277 33 0 1.19111e-20 $X=2.645 $Y=2.465
c278 27 0 1.023e-19 $X=2.215 $Y=2.465
c279 19 0 1.91375e-19 $X=2.1 $Y=1.41
r280 140 141 40.661 $w=3.5e-07 $l=1.3e-07 $layer=POLY_cond $X=6.02 $Y=1.16
+ $X2=6.15 $Y2=1.16
r281 132 140 5.77042 $w=3.5e-07 $l=3.5e-08 $layer=POLY_cond $X=5.985 $Y=1.16
+ $X2=6.02 $Y2=1.16
r282 132 138 65.1233 $w=3.5e-07 $l=3.95e-07 $layer=POLY_cond $X=5.985 $Y=1.16
+ $X2=5.59 $Y2=1.16
r283 131 132 29.056 $w=1.7e-07 $l=8.5e-07 $layer=licon1_POLY $count=5 $X=5.985
+ $Y=1.17 $X2=5.985 $Y2=1.17
r284 129 137 51.8515 $w=3.3e-07 $l=3.55e-07 $layer=POLY_cond $X=2.925 $Y=1.235
+ $X2=3.28 $Y2=1.235
r285 129 135 40.897 $w=3.3e-07 $l=2.8e-07 $layer=POLY_cond $X=2.925 $Y=1.235
+ $X2=2.645 $Y2=1.235
r286 128 131 106.863 $w=3.28e-07 $l=3.06e-06 $layer=LI1_cond $X=2.925 $Y=1.17
+ $X2=5.985 $Y2=1.17
r287 128 129 29.056 $w=1.7e-07 $l=8.5e-07 $layer=licon1_POLY $count=5 $X=2.925
+ $Y=1.17 $X2=2.925 $Y2=1.17
r288 126 128 19.7312 $w=3.28e-07 $l=5.65e-07 $layer=LI1_cond $X=2.36 $Y=1.17
+ $X2=2.925 $Y2=1.17
r289 125 126 7.76618 $w=3.3e-07 $l=2.03101e-07 $layer=LI1_cond $X=2.275 $Y=1.005
+ $X2=2.36 $Y2=1.17
r290 124 125 13.7005 $w=1.68e-07 $l=2.1e-07 $layer=LI1_cond $X=2.275 $Y=0.795
+ $X2=2.275 $Y2=1.005
r291 123 134 1.34256 $w=1.7e-07 $l=8.5e-08 $layer=LI1_cond $X=0.795 $Y=0.71
+ $X2=0.71 $Y2=0.71
r292 122 124 6.81649 $w=1.7e-07 $l=1.20208e-07 $layer=LI1_cond $X=2.19 $Y=0.71
+ $X2=2.275 $Y2=0.795
r293 122 123 91.0107 $w=1.68e-07 $l=1.395e-06 $layer=LI1_cond $X=2.19 $Y=0.71
+ $X2=0.795 $Y2=0.71
r294 118 120 60.0214 $w=1.68e-07 $l=9.2e-07 $layer=LI1_cond $X=0.71 $Y=1.98
+ $X2=0.71 $Y2=2.9
r295 116 118 68.5027 $w=1.68e-07 $l=1.05e-06 $layer=LI1_cond $X=0.71 $Y=0.93
+ $X2=0.71 $Y2=1.98
r296 114 134 5.16603 $w=1.7e-07 $l=8.5e-08 $layer=LI1_cond $X=0.71 $Y=0.795
+ $X2=0.71 $Y2=0.71
r297 114 116 8.80749 $w=1.68e-07 $l=1.35e-07 $layer=LI1_cond $X=0.71 $Y=0.795
+ $X2=0.71 $Y2=0.93
r298 110 134 5.16603 $w=1.7e-07 $l=8.5e-08 $layer=LI1_cond $X=0.71 $Y=0.625
+ $X2=0.71 $Y2=0.71
r299 110 112 12.7219 $w=1.68e-07 $l=1.95e-07 $layer=LI1_cond $X=0.71 $Y=0.625
+ $X2=0.71 $Y2=0.43
r300 102 103 70.8938 $w=3.5e-07 $l=4.3e-07 $layer=POLY_cond $X=4.65 $Y=1.16
+ $X2=5.08 $Y2=1.16
r301 101 102 70.8938 $w=3.5e-07 $l=4.3e-07 $layer=POLY_cond $X=4.22 $Y=1.16
+ $X2=4.65 $Y2=1.16
r302 100 101 70.8938 $w=3.5e-07 $l=4.3e-07 $layer=POLY_cond $X=3.79 $Y=1.16
+ $X2=4.22 $Y2=1.16
r303 97 98 138.447 $w=1.5e-07 $l=2.7e-07 $layer=POLY_cond $X=1.515 $Y=1.41
+ $X2=1.785 $Y2=1.41
r304 95 97 82.0426 $w=1.5e-07 $l=1.6e-07 $layer=POLY_cond $X=1.355 $Y=1.41
+ $X2=1.515 $Y2=1.41
r305 92 94 138.173 $w=1.5e-07 $l=4.3e-07 $layer=POLY_cond $X=9.19 $Y=0.985
+ $X2=9.19 $Y2=0.555
r306 91 109 20.4101 $w=1.5e-07 $l=7.5e-08 $layer=POLY_cond $X=8.835 $Y=1.06
+ $X2=8.76 $Y2=1.06
r307 90 92 26.9307 $w=1.5e-07 $l=1.06066e-07 $layer=POLY_cond $X=9.115 $Y=1.06
+ $X2=9.19 $Y2=0.985
r308 90 91 143.574 $w=1.5e-07 $l=2.8e-07 $layer=POLY_cond $X=9.115 $Y=1.06
+ $X2=8.835 $Y2=1.06
r309 87 109 5.30422 $w=1.5e-07 $l=7.5e-08 $layer=POLY_cond $X=8.76 $Y=0.985
+ $X2=8.76 $Y2=1.06
r310 87 89 138.173 $w=1.5e-07 $l=4.3e-07 $layer=POLY_cond $X=8.76 $Y=0.985
+ $X2=8.76 $Y2=0.555
r311 86 108 20.4101 $w=1.5e-07 $l=7.5e-08 $layer=POLY_cond $X=8.405 $Y=1.06
+ $X2=8.33 $Y2=1.06
r312 85 109 20.4101 $w=1.5e-07 $l=7.5e-08 $layer=POLY_cond $X=8.685 $Y=1.06
+ $X2=8.76 $Y2=1.06
r313 85 86 143.574 $w=1.5e-07 $l=2.8e-07 $layer=POLY_cond $X=8.685 $Y=1.06
+ $X2=8.405 $Y2=1.06
r314 82 108 5.30422 $w=1.5e-07 $l=7.5e-08 $layer=POLY_cond $X=8.33 $Y=0.985
+ $X2=8.33 $Y2=1.06
r315 82 84 138.173 $w=1.5e-07 $l=4.3e-07 $layer=POLY_cond $X=8.33 $Y=0.985
+ $X2=8.33 $Y2=0.555
r316 81 107 20.4101 $w=1.5e-07 $l=7.5e-08 $layer=POLY_cond $X=7.975 $Y=1.06
+ $X2=7.9 $Y2=1.06
r317 80 108 20.4101 $w=1.5e-07 $l=7.5e-08 $layer=POLY_cond $X=8.255 $Y=1.06
+ $X2=8.33 $Y2=1.06
r318 80 81 143.574 $w=1.5e-07 $l=2.8e-07 $layer=POLY_cond $X=8.255 $Y=1.06
+ $X2=7.975 $Y2=1.06
r319 77 107 5.30422 $w=1.5e-07 $l=7.5e-08 $layer=POLY_cond $X=7.9 $Y=0.985
+ $X2=7.9 $Y2=1.06
r320 77 79 138.173 $w=1.5e-07 $l=4.3e-07 $layer=POLY_cond $X=7.9 $Y=0.985
+ $X2=7.9 $Y2=0.555
r321 76 106 20.4101 $w=1.5e-07 $l=7.5e-08 $layer=POLY_cond $X=7.545 $Y=1.06
+ $X2=7.47 $Y2=1.06
r322 75 107 20.4101 $w=1.5e-07 $l=7.5e-08 $layer=POLY_cond $X=7.825 $Y=1.06
+ $X2=7.9 $Y2=1.06
r323 75 76 143.574 $w=1.5e-07 $l=2.8e-07 $layer=POLY_cond $X=7.825 $Y=1.06
+ $X2=7.545 $Y2=1.06
r324 72 106 5.30422 $w=1.5e-07 $l=7.5e-08 $layer=POLY_cond $X=7.47 $Y=0.985
+ $X2=7.47 $Y2=1.06
r325 72 74 138.173 $w=1.5e-07 $l=4.3e-07 $layer=POLY_cond $X=7.47 $Y=0.985
+ $X2=7.47 $Y2=0.555
r326 71 105 20.4101 $w=1.5e-07 $l=7.5e-08 $layer=POLY_cond $X=7.115 $Y=1.06
+ $X2=7.04 $Y2=1.06
r327 70 106 20.4101 $w=1.5e-07 $l=7.5e-08 $layer=POLY_cond $X=7.395 $Y=1.06
+ $X2=7.47 $Y2=1.06
r328 70 71 143.574 $w=1.5e-07 $l=2.8e-07 $layer=POLY_cond $X=7.395 $Y=1.06
+ $X2=7.115 $Y2=1.06
r329 67 105 5.30422 $w=1.5e-07 $l=7.5e-08 $layer=POLY_cond $X=7.04 $Y=0.985
+ $X2=7.04 $Y2=1.06
r330 67 69 138.173 $w=1.5e-07 $l=4.3e-07 $layer=POLY_cond $X=7.04 $Y=0.985
+ $X2=7.04 $Y2=0.555
r331 66 104 20.4101 $w=1.5e-07 $l=7.5e-08 $layer=POLY_cond $X=6.685 $Y=1.06
+ $X2=6.61 $Y2=1.06
r332 65 105 20.4101 $w=1.5e-07 $l=7.5e-08 $layer=POLY_cond $X=6.965 $Y=1.06
+ $X2=7.04 $Y2=1.06
r333 65 66 143.574 $w=1.5e-07 $l=2.8e-07 $layer=POLY_cond $X=6.965 $Y=1.06
+ $X2=6.685 $Y2=1.06
r334 62 104 5.30422 $w=1.5e-07 $l=7.5e-08 $layer=POLY_cond $X=6.61 $Y=0.985
+ $X2=6.61 $Y2=1.06
r335 62 64 138.173 $w=1.5e-07 $l=4.3e-07 $layer=POLY_cond $X=6.61 $Y=0.985
+ $X2=6.61 $Y2=0.555
r336 60 104 20.4101 $w=1.5e-07 $l=7.5e-08 $layer=POLY_cond $X=6.535 $Y=1.06
+ $X2=6.61 $Y2=1.06
r337 60 141 197.415 $w=1.5e-07 $l=3.85e-07 $layer=POLY_cond $X=6.535 $Y=1.06
+ $X2=6.15 $Y2=1.06
r338 57 140 22.6286 $w=1.5e-07 $l=1.75e-07 $layer=POLY_cond $X=6.02 $Y=0.985
+ $X2=6.02 $Y2=1.16
r339 57 59 138.173 $w=1.5e-07 $l=4.3e-07 $layer=POLY_cond $X=6.02 $Y=0.985
+ $X2=6.02 $Y2=0.555
r340 54 138 22.6286 $w=1.5e-07 $l=1.75e-07 $layer=POLY_cond $X=5.59 $Y=0.985
+ $X2=5.59 $Y2=1.16
r341 54 56 138.173 $w=1.5e-07 $l=4.3e-07 $layer=POLY_cond $X=5.59 $Y=0.985
+ $X2=5.59 $Y2=0.555
r342 53 103 12.3652 $w=3.5e-07 $l=7.5e-08 $layer=POLY_cond $X=5.155 $Y=1.16
+ $X2=5.08 $Y2=1.16
r343 52 138 12.3652 $w=3.5e-07 $l=7.5e-08 $layer=POLY_cond $X=5.515 $Y=1.16
+ $X2=5.59 $Y2=1.16
r344 52 53 59.3529 $w=3.5e-07 $l=3.6e-07 $layer=POLY_cond $X=5.515 $Y=1.16
+ $X2=5.155 $Y2=1.16
r345 49 103 22.6286 $w=1.5e-07 $l=1.75e-07 $layer=POLY_cond $X=5.08 $Y=0.985
+ $X2=5.08 $Y2=1.16
r346 49 51 138.173 $w=1.5e-07 $l=4.3e-07 $layer=POLY_cond $X=5.08 $Y=0.985
+ $X2=5.08 $Y2=0.555
r347 46 102 22.6286 $w=1.5e-07 $l=1.75e-07 $layer=POLY_cond $X=4.65 $Y=0.985
+ $X2=4.65 $Y2=1.16
r348 46 48 138.173 $w=1.5e-07 $l=4.3e-07 $layer=POLY_cond $X=4.65 $Y=0.985
+ $X2=4.65 $Y2=0.555
r349 43 101 22.6286 $w=1.5e-07 $l=1.75e-07 $layer=POLY_cond $X=4.22 $Y=0.985
+ $X2=4.22 $Y2=1.16
r350 43 45 138.173 $w=1.5e-07 $l=4.3e-07 $layer=POLY_cond $X=4.22 $Y=0.985
+ $X2=4.22 $Y2=0.555
r351 40 100 22.6286 $w=1.5e-07 $l=1.75e-07 $layer=POLY_cond $X=3.79 $Y=0.985
+ $X2=3.79 $Y2=1.16
r352 40 42 138.173 $w=1.5e-07 $l=4.3e-07 $layer=POLY_cond $X=3.79 $Y=0.985
+ $X2=3.79 $Y2=0.555
r353 39 137 10.5425 $w=3.5e-07 $l=1.06066e-07 $layer=POLY_cond $X=3.355 $Y=1.16
+ $X2=3.28 $Y2=1.235
r354 38 100 12.3652 $w=3.5e-07 $l=7.5e-08 $layer=POLY_cond $X=3.715 $Y=1.16
+ $X2=3.79 $Y2=1.16
r355 38 39 59.3529 $w=3.5e-07 $l=3.6e-07 $layer=POLY_cond $X=3.715 $Y=1.16
+ $X2=3.355 $Y2=1.16
r356 35 137 21.2229 $w=1.5e-07 $l=2.5e-07 $layer=POLY_cond $X=3.28 $Y=0.985
+ $X2=3.28 $Y2=1.235
r357 35 37 138.173 $w=1.5e-07 $l=4.3e-07 $layer=POLY_cond $X=3.28 $Y=0.985
+ $X2=3.28 $Y2=0.555
r358 31 135 21.2229 $w=1.5e-07 $l=2.5e-07 $layer=POLY_cond $X=2.645 $Y=1.485
+ $X2=2.645 $Y2=1.235
r359 31 33 502.511 $w=1.5e-07 $l=9.8e-07 $layer=POLY_cond $X=2.645 $Y=1.485
+ $X2=2.645 $Y2=2.465
r360 30 99 12.05 $w=1.5e-07 $l=9.5e-08 $layer=POLY_cond $X=2.29 $Y=1.41
+ $X2=2.195 $Y2=1.41
r361 29 135 25.4547 $w=3.3e-07 $l=2.09165e-07 $layer=POLY_cond $X=2.57 $Y=1.41
+ $X2=2.645 $Y2=1.235
r362 29 30 143.574 $w=1.5e-07 $l=2.8e-07 $layer=POLY_cond $X=2.57 $Y=1.41
+ $X2=2.29 $Y2=1.41
r363 25 99 12.05 $w=1.5e-07 $l=8.44097e-08 $layer=POLY_cond $X=2.215 $Y=1.485
+ $X2=2.195 $Y2=1.41
r364 25 27 502.511 $w=1.5e-07 $l=9.8e-07 $layer=POLY_cond $X=2.215 $Y=1.485
+ $X2=2.215 $Y2=2.465
r365 21 99 12.05 $w=1.5e-07 $l=8.44097e-08 $layer=POLY_cond $X=2.175 $Y=1.335
+ $X2=2.195 $Y2=1.41
r366 21 23 348.681 $w=1.5e-07 $l=6.8e-07 $layer=POLY_cond $X=2.175 $Y=1.335
+ $X2=2.175 $Y2=0.655
r367 20 98 38.4574 $w=1.5e-07 $l=7.5e-08 $layer=POLY_cond $X=1.86 $Y=1.41
+ $X2=1.785 $Y2=1.41
r368 19 99 12.05 $w=1.5e-07 $l=9.5e-08 $layer=POLY_cond $X=2.1 $Y=1.41 $X2=2.195
+ $Y2=1.41
r369 19 20 123.064 $w=1.5e-07 $l=2.4e-07 $layer=POLY_cond $X=2.1 $Y=1.41
+ $X2=1.86 $Y2=1.41
r370 15 98 2.83073 $w=1.5e-07 $l=7.5e-08 $layer=POLY_cond $X=1.785 $Y=1.485
+ $X2=1.785 $Y2=1.41
r371 15 17 502.511 $w=1.5e-07 $l=9.8e-07 $layer=POLY_cond $X=1.785 $Y=1.485
+ $X2=1.785 $Y2=2.465
r372 11 97 2.83073 $w=1.5e-07 $l=7.5e-08 $layer=POLY_cond $X=1.515 $Y=1.335
+ $X2=1.515 $Y2=1.41
r373 11 13 348.681 $w=1.5e-07 $l=6.8e-07 $layer=POLY_cond $X=1.515 $Y=1.335
+ $X2=1.515 $Y2=0.655
r374 7 95 2.83073 $w=1.5e-07 $l=7.5e-08 $layer=POLY_cond $X=1.355 $Y=1.485
+ $X2=1.355 $Y2=1.41
r375 7 9 502.511 $w=1.5e-07 $l=9.8e-07 $layer=POLY_cond $X=1.355 $Y=1.485
+ $X2=1.355 $Y2=2.465
r376 2 120 400 $w=1.7e-07 $l=1.13284e-06 $layer=licon1_PDIFF $count=1 $X=0.57
+ $Y=1.835 $X2=0.71 $Y2=2.9
r377 2 118 400 $w=1.7e-07 $l=2.03286e-07 $layer=licon1_PDIFF $count=1 $X=0.57
+ $Y=1.835 $X2=0.71 $Y2=1.98
r378 1 116 182 $w=1.7e-07 $l=7.61791e-07 $layer=licon1_NDIFF $count=1 $X=0.57
+ $Y=0.235 $X2=0.71 $Y2=0.93
r379 1 112 182 $w=1.7e-07 $l=2.55588e-07 $layer=licon1_NDIFF $count=1 $X=0.57
+ $Y=0.235 $X2=0.71 $Y2=0.43
.ends

.subckt PM_SKY130_FD_SC_LP__BUSDRIVER2_20%A_286_367# 1 2 3 10 12 13 14 15 17 18
+ 20 22 23 25 27 28 30 32 33 35 37 38 40 42 43 45 47 48 50 52 53 55 56 58 59 61
+ 62 64 65 67 68 70 71 73 74 76 77 78 79 81 82 84 86 87 89 91 92 93 94 95 96 97
+ 98 99 100 103 107 109 110 113 117 119 126 134
c329 134 0 1.023e-19 $X=6.39 $Y=1.515
c330 110 0 2.49061e-19 $X=2.01 $Y=1.9
c331 109 0 1.19111e-20 $X=2.265 $Y=1.9
c332 84 0 4.06089e-20 $X=10.835 $Y=1.725
r333 142 143 57.0964 $w=3.63e-07 $l=4.3e-07 $layer=POLY_cond $X=9.115 $Y=1.535
+ $X2=9.545 $Y2=1.535
r334 141 142 57.0964 $w=3.63e-07 $l=4.3e-07 $layer=POLY_cond $X=8.685 $Y=1.535
+ $X2=9.115 $Y2=1.535
r335 140 141 57.0964 $w=3.63e-07 $l=4.3e-07 $layer=POLY_cond $X=8.255 $Y=1.535
+ $X2=8.685 $Y2=1.535
r336 139 140 59.7521 $w=3.63e-07 $l=4.5e-07 $layer=POLY_cond $X=7.805 $Y=1.535
+ $X2=8.255 $Y2=1.535
r337 138 139 57.0964 $w=3.63e-07 $l=4.3e-07 $layer=POLY_cond $X=7.375 $Y=1.535
+ $X2=7.805 $Y2=1.535
r338 137 138 57.0964 $w=3.63e-07 $l=4.3e-07 $layer=POLY_cond $X=6.945 $Y=1.535
+ $X2=7.375 $Y2=1.535
r339 133 137 51.7851 $w=3.63e-07 $l=3.9e-07 $layer=POLY_cond $X=6.555 $Y=1.535
+ $X2=6.945 $Y2=1.535
r340 133 135 5.31129 $w=3.63e-07 $l=4e-08 $layer=POLY_cond $X=6.555 $Y=1.535
+ $X2=6.515 $Y2=1.535
r341 132 134 8.47192 $w=3.38e-07 $l=1.65e-07 $layer=LI1_cond $X=6.555 $Y=1.515
+ $X2=6.39 $Y2=1.515
r342 132 133 29.056 $w=1.7e-07 $l=8.5e-07 $layer=licon1_POLY $count=5 $X=6.555
+ $Y=1.51 $X2=6.555 $Y2=1.51
r343 128 130 2.7938 $w=3.28e-07 $l=8e-08 $layer=LI1_cond $X=2.43 $Y=1.9 $X2=2.43
+ $Y2=1.98
r344 126 128 10.4768 $w=3.28e-07 $l=3e-07 $layer=LI1_cond $X=2.43 $Y=1.6
+ $X2=2.43 $Y2=1.9
r345 120 143 9.29477 $w=3.63e-07 $l=7e-08 $layer=POLY_cond $X=9.615 $Y=1.535
+ $X2=9.545 $Y2=1.535
r346 119 120 29.056 $w=1.7e-07 $l=8.5e-07 $layer=licon1_POLY $count=5 $X=9.615
+ $Y=1.51 $X2=9.615 $Y2=1.51
r347 117 132 0.169477 $w=3.38e-07 $l=5e-09 $layer=LI1_cond $X=6.56 $Y=1.515
+ $X2=6.555 $Y2=1.515
r348 117 119 103.55 $w=3.38e-07 $l=3.055e-06 $layer=LI1_cond $X=6.56 $Y=1.515
+ $X2=9.615 $Y2=1.515
r349 116 126 4.62375 $w=1.7e-07 $l=1.65e-07 $layer=LI1_cond $X=2.595 $Y=1.6
+ $X2=2.43 $Y2=1.6
r350 116 134 247.588 $w=1.68e-07 $l=3.795e-06 $layer=LI1_cond $X=2.595 $Y=1.6
+ $X2=6.39 $Y2=1.6
r351 111 130 0.174613 $w=3.28e-07 $l=5e-09 $layer=LI1_cond $X=2.43 $Y=1.985
+ $X2=2.43 $Y2=1.98
r352 111 113 31.9541 $w=3.28e-07 $l=9.15e-07 $layer=LI1_cond $X=2.43 $Y=1.985
+ $X2=2.43 $Y2=2.9
r353 109 128 4.62375 $w=1.7e-07 $l=1.65e-07 $layer=LI1_cond $X=2.265 $Y=1.9
+ $X2=2.43 $Y2=1.9
r354 109 110 16.6364 $w=1.68e-07 $l=2.55e-07 $layer=LI1_cond $X=2.265 $Y=1.9
+ $X2=2.01 $Y2=1.9
r355 105 110 10.7647 $w=1.68e-07 $l=1.65e-07 $layer=LI1_cond $X=1.845 $Y=1.9
+ $X2=2.01 $Y2=1.9
r356 105 123 17.9412 $w=1.68e-07 $l=2.75e-07 $layer=LI1_cond $X=1.845 $Y=1.9
+ $X2=1.57 $Y2=1.9
r357 105 107 26.3665 $w=3.28e-07 $l=7.55e-07 $layer=LI1_cond $X=1.845 $Y=1.815
+ $X2=1.845 $Y2=1.06
r358 103 123 31.9541 $w=3.28e-07 $l=9.15e-07 $layer=LI1_cond $X=1.57 $Y=2.9
+ $X2=1.57 $Y2=1.985
r359 89 91 237.787 $w=1.5e-07 $l=7.4e-07 $layer=POLY_cond $X=11.265 $Y=1.725
+ $X2=11.265 $Y2=2.465
r360 88 100 20.4101 $w=1.5e-07 $l=7.5e-08 $layer=POLY_cond $X=10.91 $Y=1.65
+ $X2=10.835 $Y2=1.65
r361 87 89 26.9307 $w=1.5e-07 $l=1.06066e-07 $layer=POLY_cond $X=11.19 $Y=1.65
+ $X2=11.265 $Y2=1.725
r362 87 88 143.574 $w=1.5e-07 $l=2.8e-07 $layer=POLY_cond $X=11.19 $Y=1.65
+ $X2=10.91 $Y2=1.65
r363 84 100 5.30422 $w=1.5e-07 $l=7.5e-08 $layer=POLY_cond $X=10.835 $Y=1.725
+ $X2=10.835 $Y2=1.65
r364 84 86 237.787 $w=1.5e-07 $l=7.4e-07 $layer=POLY_cond $X=10.835 $Y=1.725
+ $X2=10.835 $Y2=2.465
r365 83 99 20.4101 $w=1.5e-07 $l=7.5e-08 $layer=POLY_cond $X=10.48 $Y=1.65
+ $X2=10.405 $Y2=1.65
r366 82 100 20.4101 $w=1.5e-07 $l=7.5e-08 $layer=POLY_cond $X=10.76 $Y=1.65
+ $X2=10.835 $Y2=1.65
r367 82 83 143.574 $w=1.5e-07 $l=2.8e-07 $layer=POLY_cond $X=10.76 $Y=1.65
+ $X2=10.48 $Y2=1.65
r368 79 99 5.30422 $w=1.5e-07 $l=7.5e-08 $layer=POLY_cond $X=10.405 $Y=1.725
+ $X2=10.405 $Y2=1.65
r369 79 81 237.787 $w=1.5e-07 $l=7.4e-07 $layer=POLY_cond $X=10.405 $Y=1.725
+ $X2=10.405 $Y2=2.465
r370 77 99 20.4101 $w=1.5e-07 $l=7.5e-08 $layer=POLY_cond $X=10.33 $Y=1.65
+ $X2=10.405 $Y2=1.65
r371 77 78 143.574 $w=1.5e-07 $l=2.8e-07 $layer=POLY_cond $X=10.33 $Y=1.65
+ $X2=10.05 $Y2=1.65
r372 74 78 27.0016 $w=3.63e-07 $l=1.06066e-07 $layer=POLY_cond $X=9.975 $Y=1.725
+ $X2=10.05 $Y2=1.65
r373 74 120 47.8017 $w=3.63e-07 $l=4.44972e-07 $layer=POLY_cond $X=9.975
+ $Y=1.725 $X2=9.615 $Y2=1.535
r374 74 76 237.787 $w=1.5e-07 $l=7.4e-07 $layer=POLY_cond $X=9.975 $Y=1.725
+ $X2=9.975 $Y2=2.465
r375 71 143 23.5056 $w=1.5e-07 $l=1.9e-07 $layer=POLY_cond $X=9.545 $Y=1.725
+ $X2=9.545 $Y2=1.535
r376 71 73 237.787 $w=1.5e-07 $l=7.4e-07 $layer=POLY_cond $X=9.545 $Y=1.725
+ $X2=9.545 $Y2=2.465
r377 68 142 23.5056 $w=1.5e-07 $l=1.9e-07 $layer=POLY_cond $X=9.115 $Y=1.725
+ $X2=9.115 $Y2=1.535
r378 68 70 237.787 $w=1.5e-07 $l=7.4e-07 $layer=POLY_cond $X=9.115 $Y=1.725
+ $X2=9.115 $Y2=2.465
r379 65 141 23.5056 $w=1.5e-07 $l=1.9e-07 $layer=POLY_cond $X=8.685 $Y=1.725
+ $X2=8.685 $Y2=1.535
r380 65 67 237.787 $w=1.5e-07 $l=7.4e-07 $layer=POLY_cond $X=8.685 $Y=1.725
+ $X2=8.685 $Y2=2.465
r381 62 140 23.5056 $w=1.5e-07 $l=1.9e-07 $layer=POLY_cond $X=8.255 $Y=1.725
+ $X2=8.255 $Y2=1.535
r382 62 64 237.787 $w=1.5e-07 $l=7.4e-07 $layer=POLY_cond $X=8.255 $Y=1.725
+ $X2=8.255 $Y2=2.465
r383 59 139 23.5056 $w=1.5e-07 $l=1.9e-07 $layer=POLY_cond $X=7.805 $Y=1.725
+ $X2=7.805 $Y2=1.535
r384 59 61 237.787 $w=1.5e-07 $l=7.4e-07 $layer=POLY_cond $X=7.805 $Y=1.725
+ $X2=7.805 $Y2=2.465
r385 56 138 23.5056 $w=1.5e-07 $l=1.9e-07 $layer=POLY_cond $X=7.375 $Y=1.725
+ $X2=7.375 $Y2=1.535
r386 56 58 237.787 $w=1.5e-07 $l=7.4e-07 $layer=POLY_cond $X=7.375 $Y=1.725
+ $X2=7.375 $Y2=2.465
r387 53 137 23.5056 $w=1.5e-07 $l=1.9e-07 $layer=POLY_cond $X=6.945 $Y=1.725
+ $X2=6.945 $Y2=1.535
r388 53 55 237.787 $w=1.5e-07 $l=7.4e-07 $layer=POLY_cond $X=6.945 $Y=1.725
+ $X2=6.945 $Y2=2.465
r389 50 135 23.5056 $w=1.5e-07 $l=1.9e-07 $layer=POLY_cond $X=6.515 $Y=1.725
+ $X2=6.515 $Y2=1.535
r390 50 52 237.787 $w=1.5e-07 $l=7.4e-07 $layer=POLY_cond $X=6.515 $Y=1.725
+ $X2=6.515 $Y2=2.465
r391 49 98 20.4101 $w=1.5e-07 $l=7.5e-08 $layer=POLY_cond $X=6.16 $Y=1.65
+ $X2=6.085 $Y2=1.65
r392 48 135 33.6407 $w=3.63e-07 $l=1.73205e-07 $layer=POLY_cond $X=6.39 $Y=1.65
+ $X2=6.515 $Y2=1.535
r393 48 49 117.936 $w=1.5e-07 $l=2.3e-07 $layer=POLY_cond $X=6.39 $Y=1.65
+ $X2=6.16 $Y2=1.65
r394 45 98 5.30422 $w=1.5e-07 $l=7.5e-08 $layer=POLY_cond $X=6.085 $Y=1.725
+ $X2=6.085 $Y2=1.65
r395 45 47 237.787 $w=1.5e-07 $l=7.4e-07 $layer=POLY_cond $X=6.085 $Y=1.725
+ $X2=6.085 $Y2=2.465
r396 44 97 20.4101 $w=1.5e-07 $l=7.5e-08 $layer=POLY_cond $X=5.73 $Y=1.65
+ $X2=5.655 $Y2=1.65
r397 43 98 20.4101 $w=1.5e-07 $l=7.5e-08 $layer=POLY_cond $X=6.01 $Y=1.65
+ $X2=6.085 $Y2=1.65
r398 43 44 143.574 $w=1.5e-07 $l=2.8e-07 $layer=POLY_cond $X=6.01 $Y=1.65
+ $X2=5.73 $Y2=1.65
r399 40 97 5.30422 $w=1.5e-07 $l=7.5e-08 $layer=POLY_cond $X=5.655 $Y=1.725
+ $X2=5.655 $Y2=1.65
r400 40 42 237.787 $w=1.5e-07 $l=7.4e-07 $layer=POLY_cond $X=5.655 $Y=1.725
+ $X2=5.655 $Y2=2.465
r401 39 96 20.4101 $w=1.5e-07 $l=7.5e-08 $layer=POLY_cond $X=5.3 $Y=1.65
+ $X2=5.225 $Y2=1.65
r402 38 97 20.4101 $w=1.5e-07 $l=7.5e-08 $layer=POLY_cond $X=5.58 $Y=1.65
+ $X2=5.655 $Y2=1.65
r403 38 39 143.574 $w=1.5e-07 $l=2.8e-07 $layer=POLY_cond $X=5.58 $Y=1.65
+ $X2=5.3 $Y2=1.65
r404 35 96 5.30422 $w=1.5e-07 $l=7.5e-08 $layer=POLY_cond $X=5.225 $Y=1.725
+ $X2=5.225 $Y2=1.65
r405 35 37 237.787 $w=1.5e-07 $l=7.4e-07 $layer=POLY_cond $X=5.225 $Y=1.725
+ $X2=5.225 $Y2=2.465
r406 34 95 20.4101 $w=1.5e-07 $l=7.5e-08 $layer=POLY_cond $X=4.87 $Y=1.65
+ $X2=4.795 $Y2=1.65
r407 33 96 20.4101 $w=1.5e-07 $l=7.5e-08 $layer=POLY_cond $X=5.15 $Y=1.65
+ $X2=5.225 $Y2=1.65
r408 33 34 143.574 $w=1.5e-07 $l=2.8e-07 $layer=POLY_cond $X=5.15 $Y=1.65
+ $X2=4.87 $Y2=1.65
r409 30 95 5.30422 $w=1.5e-07 $l=7.5e-08 $layer=POLY_cond $X=4.795 $Y=1.725
+ $X2=4.795 $Y2=1.65
r410 30 32 237.787 $w=1.5e-07 $l=7.4e-07 $layer=POLY_cond $X=4.795 $Y=1.725
+ $X2=4.795 $Y2=2.465
r411 29 94 20.4101 $w=1.5e-07 $l=7.5e-08 $layer=POLY_cond $X=4.44 $Y=1.65
+ $X2=4.365 $Y2=1.65
r412 28 95 20.4101 $w=1.5e-07 $l=7.5e-08 $layer=POLY_cond $X=4.72 $Y=1.65
+ $X2=4.795 $Y2=1.65
r413 28 29 143.574 $w=1.5e-07 $l=2.8e-07 $layer=POLY_cond $X=4.72 $Y=1.65
+ $X2=4.44 $Y2=1.65
r414 25 94 5.30422 $w=1.5e-07 $l=7.5e-08 $layer=POLY_cond $X=4.365 $Y=1.725
+ $X2=4.365 $Y2=1.65
r415 25 27 237.787 $w=1.5e-07 $l=7.4e-07 $layer=POLY_cond $X=4.365 $Y=1.725
+ $X2=4.365 $Y2=2.465
r416 24 93 20.4101 $w=1.5e-07 $l=7.5e-08 $layer=POLY_cond $X=4.01 $Y=1.65
+ $X2=3.935 $Y2=1.65
r417 23 94 20.4101 $w=1.5e-07 $l=7.5e-08 $layer=POLY_cond $X=4.29 $Y=1.65
+ $X2=4.365 $Y2=1.65
r418 23 24 143.574 $w=1.5e-07 $l=2.8e-07 $layer=POLY_cond $X=4.29 $Y=1.65
+ $X2=4.01 $Y2=1.65
r419 20 93 5.30422 $w=1.5e-07 $l=7.5e-08 $layer=POLY_cond $X=3.935 $Y=1.725
+ $X2=3.935 $Y2=1.65
r420 20 22 237.787 $w=1.5e-07 $l=7.4e-07 $layer=POLY_cond $X=3.935 $Y=1.725
+ $X2=3.935 $Y2=2.465
r421 19 92 20.4101 $w=1.5e-07 $l=7.5e-08 $layer=POLY_cond $X=3.58 $Y=1.65
+ $X2=3.505 $Y2=1.65
r422 18 93 20.4101 $w=1.5e-07 $l=7.5e-08 $layer=POLY_cond $X=3.86 $Y=1.65
+ $X2=3.935 $Y2=1.65
r423 18 19 143.574 $w=1.5e-07 $l=2.8e-07 $layer=POLY_cond $X=3.86 $Y=1.65
+ $X2=3.58 $Y2=1.65
r424 15 92 5.30422 $w=1.5e-07 $l=7.5e-08 $layer=POLY_cond $X=3.505 $Y=1.725
+ $X2=3.505 $Y2=1.65
r425 15 17 237.787 $w=1.5e-07 $l=7.4e-07 $layer=POLY_cond $X=3.505 $Y=1.725
+ $X2=3.505 $Y2=2.465
r426 13 92 20.4101 $w=1.5e-07 $l=7.5e-08 $layer=POLY_cond $X=3.43 $Y=1.65
+ $X2=3.505 $Y2=1.65
r427 13 14 143.574 $w=1.5e-07 $l=2.8e-07 $layer=POLY_cond $X=3.43 $Y=1.65
+ $X2=3.15 $Y2=1.65
r428 10 14 26.9307 $w=1.5e-07 $l=1.06066e-07 $layer=POLY_cond $X=3.075 $Y=1.725
+ $X2=3.15 $Y2=1.65
r429 10 12 237.787 $w=1.5e-07 $l=7.4e-07 $layer=POLY_cond $X=3.075 $Y=1.725
+ $X2=3.075 $Y2=2.465
r430 3 130 400 $w=1.7e-07 $l=2.03286e-07 $layer=licon1_PDIFF $count=1 $X=2.29
+ $Y=1.835 $X2=2.43 $Y2=1.98
r431 3 113 400 $w=1.7e-07 $l=1.13284e-06 $layer=licon1_PDIFF $count=1 $X=2.29
+ $Y=1.835 $X2=2.43 $Y2=2.9
r432 2 123 400 $w=1.7e-07 $l=2.03286e-07 $layer=licon1_PDIFF $count=1 $X=1.43
+ $Y=1.835 $X2=1.57 $Y2=1.98
r433 2 103 400 $w=1.7e-07 $l=1.13284e-06 $layer=licon1_PDIFF $count=1 $X=1.43
+ $Y=1.835 $X2=1.57 $Y2=2.9
r434 1 107 182 $w=1.7e-07 $l=9.43928e-07 $layer=licon1_NDIFF $count=1 $X=1.59
+ $Y=0.235 $X2=1.845 $Y2=1.06
.ends

.subckt PM_SKY130_FD_SC_LP__BUSDRIVER2_20%A_1909_21# 1 2 3 4 5 6 19 21 22 23 24
+ 26 27 29 31 32 34 36 37 39 41 42 44 46 49 51 53 56 58 60 63 65 67 70 72 74 77
+ 79 81 84 86 88 91 93 95 98 100 102 105 109 113 117 121 125 129 133 137 141 145
+ 149 151 152 153 154 155 163 170 172 175 179 181 185 189 193 195 199 203 207
+ 211 215 216 217 218 219 220
c446 170 0 1.20079e-19 $X=21.265 $Y=1.15
r447 249 250 62.4277 $w=3.32e-07 $l=4.3e-07 $layer=POLY_cond $X=18.29 $Y=1.155
+ $X2=18.72 $Y2=1.155
r448 248 249 62.4277 $w=3.32e-07 $l=4.3e-07 $layer=POLY_cond $X=17.86 $Y=1.155
+ $X2=18.29 $Y2=1.155
r449 247 248 62.4277 $w=3.32e-07 $l=4.3e-07 $layer=POLY_cond $X=17.43 $Y=1.155
+ $X2=17.86 $Y2=1.155
r450 246 247 62.4277 $w=3.32e-07 $l=4.3e-07 $layer=POLY_cond $X=17 $Y=1.155
+ $X2=17.43 $Y2=1.155
r451 245 246 62.4277 $w=3.32e-07 $l=4.3e-07 $layer=POLY_cond $X=16.57 $Y=1.155
+ $X2=17 $Y2=1.155
r452 244 245 62.4277 $w=3.32e-07 $l=4.3e-07 $layer=POLY_cond $X=16.14 $Y=1.155
+ $X2=16.57 $Y2=1.155
r453 241 242 37.747 $w=3.32e-07 $l=2.6e-07 $layer=POLY_cond $X=15.45 $Y=1.155
+ $X2=15.71 $Y2=1.155
r454 238 239 37.747 $w=3.32e-07 $l=2.6e-07 $layer=POLY_cond $X=15.02 $Y=1.155
+ $X2=15.28 $Y2=1.155
r455 237 238 24.6807 $w=3.32e-07 $l=1.7e-07 $layer=POLY_cond $X=14.85 $Y=1.155
+ $X2=15.02 $Y2=1.155
r456 236 237 37.747 $w=3.32e-07 $l=2.6e-07 $layer=POLY_cond $X=14.59 $Y=1.155
+ $X2=14.85 $Y2=1.155
r457 235 236 24.6807 $w=3.32e-07 $l=1.7e-07 $layer=POLY_cond $X=14.42 $Y=1.155
+ $X2=14.59 $Y2=1.155
r458 234 235 37.747 $w=3.32e-07 $l=2.6e-07 $layer=POLY_cond $X=14.16 $Y=1.155
+ $X2=14.42 $Y2=1.155
r459 233 234 24.6807 $w=3.32e-07 $l=1.7e-07 $layer=POLY_cond $X=13.99 $Y=1.155
+ $X2=14.16 $Y2=1.155
r460 232 233 37.747 $w=3.32e-07 $l=2.6e-07 $layer=POLY_cond $X=13.73 $Y=1.155
+ $X2=13.99 $Y2=1.155
r461 231 232 24.6807 $w=3.32e-07 $l=1.7e-07 $layer=POLY_cond $X=13.56 $Y=1.155
+ $X2=13.73 $Y2=1.155
r462 230 231 37.747 $w=3.32e-07 $l=2.6e-07 $layer=POLY_cond $X=13.3 $Y=1.155
+ $X2=13.56 $Y2=1.155
r463 229 230 24.6807 $w=3.32e-07 $l=1.7e-07 $layer=POLY_cond $X=13.13 $Y=1.155
+ $X2=13.3 $Y2=1.155
r464 228 229 37.747 $w=3.32e-07 $l=2.6e-07 $layer=POLY_cond $X=12.87 $Y=1.155
+ $X2=13.13 $Y2=1.155
r465 227 228 24.6807 $w=3.32e-07 $l=1.7e-07 $layer=POLY_cond $X=12.7 $Y=1.155
+ $X2=12.87 $Y2=1.155
r466 211 213 32.1287 $w=3.28e-07 $l=9.2e-07 $layer=LI1_cond $X=24.25 $Y=1.98
+ $X2=24.25 $Y2=2.9
r467 209 211 4.01609 $w=3.28e-07 $l=1.15e-07 $layer=LI1_cond $X=24.25 $Y=1.865
+ $X2=24.25 $Y2=1.98
r468 208 219 8.61065 $w=1.7e-07 $l=1.65e-07 $layer=LI1_cond $X=23.53 $Y=1.78
+ $X2=23.365 $Y2=1.78
r469 207 209 7.76618 $w=1.7e-07 $l=2.03101e-07 $layer=LI1_cond $X=24.085 $Y=1.78
+ $X2=24.25 $Y2=1.865
r470 207 208 36.2086 $w=1.68e-07 $l=5.55e-07 $layer=LI1_cond $X=24.085 $Y=1.78
+ $X2=23.53 $Y2=1.78
r471 203 205 32.1287 $w=3.28e-07 $l=9.2e-07 $layer=LI1_cond $X=23.365 $Y=1.98
+ $X2=23.365 $Y2=2.9
r472 201 219 0.89609 $w=3.3e-07 $l=8.5e-08 $layer=LI1_cond $X=23.365 $Y=1.865
+ $X2=23.365 $Y2=1.78
r473 201 203 4.01609 $w=3.28e-07 $l=1.15e-07 $layer=LI1_cond $X=23.365 $Y=1.865
+ $X2=23.365 $Y2=1.98
r474 197 199 13.969 $w=3.28e-07 $l=4e-07 $layer=LI1_cond $X=23.215 $Y=0.83
+ $X2=23.215 $Y2=0.43
r475 196 218 8.61065 $w=1.7e-07 $l=1.65e-07 $layer=LI1_cond $X=22.67 $Y=1.78
+ $X2=22.505 $Y2=1.78
r476 195 219 8.61065 $w=1.7e-07 $l=1.65e-07 $layer=LI1_cond $X=23.2 $Y=1.78
+ $X2=23.365 $Y2=1.78
r477 195 196 34.5775 $w=1.68e-07 $l=5.3e-07 $layer=LI1_cond $X=23.2 $Y=1.78
+ $X2=22.67 $Y2=1.78
r478 194 217 8.61065 $w=1.7e-07 $l=1.65e-07 $layer=LI1_cond $X=22.36 $Y=0.915
+ $X2=22.195 $Y2=0.915
r479 193 197 7.76618 $w=1.7e-07 $l=2.03101e-07 $layer=LI1_cond $X=23.05 $Y=0.915
+ $X2=23.215 $Y2=0.83
r480 193 194 45.016 $w=1.68e-07 $l=6.9e-07 $layer=LI1_cond $X=23.05 $Y=0.915
+ $X2=22.36 $Y2=0.915
r481 189 191 32.1287 $w=3.28e-07 $l=9.2e-07 $layer=LI1_cond $X=22.505 $Y=1.98
+ $X2=22.505 $Y2=2.9
r482 187 218 0.89609 $w=3.3e-07 $l=8.5e-08 $layer=LI1_cond $X=22.505 $Y=1.865
+ $X2=22.505 $Y2=1.78
r483 187 189 4.01609 $w=3.28e-07 $l=1.15e-07 $layer=LI1_cond $X=22.505 $Y=1.865
+ $X2=22.505 $Y2=1.98
r484 183 217 0.89609 $w=3.3e-07 $l=8.5e-08 $layer=LI1_cond $X=22.195 $Y=0.83
+ $X2=22.195 $Y2=0.915
r485 183 185 15.7151 $w=3.28e-07 $l=4.5e-07 $layer=LI1_cond $X=22.195 $Y=0.83
+ $X2=22.195 $Y2=0.38
r486 182 216 2.76166 $w=1.7e-07 $l=1.65e-07 $layer=LI1_cond $X=21.81 $Y=1.78
+ $X2=21.645 $Y2=1.78
r487 181 218 8.61065 $w=1.7e-07 $l=1.65e-07 $layer=LI1_cond $X=22.34 $Y=1.78
+ $X2=22.505 $Y2=1.78
r488 181 182 34.5775 $w=1.68e-07 $l=5.3e-07 $layer=LI1_cond $X=22.34 $Y=1.78
+ $X2=21.81 $Y2=1.78
r489 180 215 3.70735 $w=2.5e-07 $l=1.94921e-07 $layer=LI1_cond $X=21.65 $Y=0.915
+ $X2=21.565 $Y2=1.072
r490 179 217 8.61065 $w=1.7e-07 $l=1.65e-07 $layer=LI1_cond $X=22.03 $Y=0.915
+ $X2=22.195 $Y2=0.915
r491 179 180 24.7914 $w=1.68e-07 $l=3.8e-07 $layer=LI1_cond $X=22.03 $Y=0.915
+ $X2=21.65 $Y2=0.915
r492 175 177 32.1287 $w=3.28e-07 $l=9.2e-07 $layer=LI1_cond $X=21.645 $Y=1.98
+ $X2=21.645 $Y2=2.9
r493 173 216 3.70735 $w=2.5e-07 $l=8.5e-08 $layer=LI1_cond $X=21.645 $Y=1.865
+ $X2=21.645 $Y2=1.78
r494 173 175 4.01609 $w=3.28e-07 $l=1.15e-07 $layer=LI1_cond $X=21.645 $Y=1.865
+ $X2=21.645 $Y2=1.98
r495 172 216 3.70735 $w=2.5e-07 $l=1.18427e-07 $layer=LI1_cond $X=21.565
+ $Y=1.695 $X2=21.645 $Y2=1.78
r496 171 215 2.76166 $w=1.7e-07 $l=2.43e-07 $layer=LI1_cond $X=21.565 $Y=1.315
+ $X2=21.565 $Y2=1.072
r497 171 172 24.7914 $w=1.68e-07 $l=3.8e-07 $layer=LI1_cond $X=21.565 $Y=1.315
+ $X2=21.565 $Y2=1.695
r498 170 220 131.146 $w=3.3e-07 $l=7.5e-07 $layer=POLY_cond $X=21.265 $Y=1.15
+ $X2=20.515 $Y2=1.15
r499 169 170 17.0918 $w=1.7e-07 $l=1.445e-06 $layer=licon1_POLY $count=8
+ $X=21.265 $Y=1.15 $X2=21.265 $Y2=1.15
r500 167 244 45.7319 $w=3.32e-07 $l=3.15e-07 $layer=POLY_cond $X=15.825 $Y=1.155
+ $X2=16.14 $Y2=1.155
r501 167 242 16.6958 $w=3.32e-07 $l=1.15e-07 $layer=POLY_cond $X=15.825 $Y=1.155
+ $X2=15.71 $Y2=1.155
r502 166 169 189.978 $w=3.28e-07 $l=5.44e-06 $layer=LI1_cond $X=15.825 $Y=1.15
+ $X2=21.265 $Y2=1.15
r503 166 167 17.0918 $w=1.7e-07 $l=1.445e-06 $layer=licon1_POLY $count=8
+ $X=15.825 $Y=1.15 $X2=15.825 $Y2=1.15
r504 163 215 3.70735 $w=2.5e-07 $l=1.17707e-07 $layer=LI1_cond $X=21.48 $Y=1.15
+ $X2=21.565 $Y2=1.072
r505 163 169 7.50834 $w=3.28e-07 $l=2.15e-07 $layer=LI1_cond $X=21.48 $Y=1.15
+ $X2=21.265 $Y2=1.15
r506 162 241 23.2289 $w=3.32e-07 $l=1.6e-07 $layer=POLY_cond $X=15.29 $Y=1.155
+ $X2=15.45 $Y2=1.155
r507 162 239 1.45181 $w=3.32e-07 $l=1e-08 $layer=POLY_cond $X=15.29 $Y=1.155
+ $X2=15.28 $Y2=1.155
r508 161 162 32.2844 $w=1.7e-07 $l=7.65e-07 $layer=licon1_POLY $count=4 $X=15.29
+ $Y=1.16 $X2=15.29 $Y2=1.16
r509 158 227 18.8735 $w=3.32e-07 $l=1.3e-07 $layer=POLY_cond $X=12.57 $Y=1.155
+ $X2=12.7 $Y2=1.155
r510 158 225 18.8735 $w=3.32e-07 $l=1.3e-07 $layer=POLY_cond $X=12.57 $Y=1.155
+ $X2=12.44 $Y2=1.155
r511 157 161 125.386 $w=2.48e-07 $l=2.72e-06 $layer=LI1_cond $X=12.57 $Y=1.2
+ $X2=15.29 $Y2=1.2
r512 157 158 32.2844 $w=1.7e-07 $l=7.65e-07 $layer=licon1_POLY $count=4 $X=12.57
+ $Y=1.16 $X2=12.57 $Y2=1.16
r513 155 166 22.2022 $w=2.72e-07 $l=5.19399e-07 $layer=LI1_cond $X=15.33 $Y=1.2
+ $X2=15.825 $Y2=1.15
r514 155 161 1.84391 $w=2.48e-07 $l=4e-08 $layer=LI1_cond $X=15.33 $Y=1.2
+ $X2=15.29 $Y2=1.2
r515 147 220 10.8886 $w=3.32e-07 $l=7.74597e-08 $layer=POLY_cond $X=20.44
+ $Y=1.155 $X2=20.515 $Y2=1.15
r516 147 149 430.723 $w=1.5e-07 $l=8.4e-07 $layer=POLY_cond $X=20.44 $Y=1.315
+ $X2=20.44 $Y2=2.155
r517 143 147 62.4277 $w=3.32e-07 $l=4.3e-07 $layer=POLY_cond $X=20.01 $Y=1.155
+ $X2=20.44 $Y2=1.155
r518 143 145 430.723 $w=1.5e-07 $l=8.4e-07 $layer=POLY_cond $X=20.01 $Y=1.315
+ $X2=20.01 $Y2=2.155
r519 139 143 62.4277 $w=3.32e-07 $l=4.3e-07 $layer=POLY_cond $X=19.58 $Y=1.155
+ $X2=20.01 $Y2=1.155