* File: sky130_fd_sc_lp__o2bb2ai_4.pex.spice
* Created: Wed Sep  2 10:22:24 2020
* Program "Calibre xRC"
* Version "v2018.4_34.26"
* Nominal Temperature: 27C
* Circuit Temperature: 27C
* 
.subckt PM_SKY130_FD_SC_LP__O2BB2AI_4%B1 3 7 11 15 19 23 27 31 33 38 42 43 44 45
+ 46 47 64 67 68 71
c123 47 0 1.33268e-19 $X=3.6 $Y=2.035
c124 42 0 2.41113e-20 $X=1.2 $Y=2.035
c125 38 0 1.7747e-19 $X=1.235 $Y=1.645
c126 31 0 1.08037e-19 $X=3.625 $Y=2.465
c127 27 0 1.8603e-19 $X=3.605 $Y=0.745
r128 67 70 46.2115 $w=3.3e-07 $l=1.65e-07 $layer=POLY_cond $X=3.645 $Y=1.51
+ $X2=3.645 $Y2=1.675
r129 67 69 54.9546 $w=3.3e-07 $l=2.15e-07 $layer=POLY_cond $X=3.645 $Y=1.51
+ $X2=3.645 $Y2=1.295
r130 67 68 145.28 $w=1.7e-07 $l=1.7e-07 $layer=licon1_POLY $count=1 $X=3.645
+ $Y=1.51 $X2=3.645 $Y2=1.51
r131 63 64 12.2403 $w=3.3e-07 $l=7e-08 $layer=POLY_cond $X=1.375 $Y=1.51
+ $X2=1.445 $Y2=1.51
r132 60 61 12.2403 $w=3.3e-07 $l=7e-08 $layer=POLY_cond $X=0.945 $Y=1.51
+ $X2=1.015 $Y2=1.51
r133 56 58 12.2403 $w=3.3e-07 $l=7e-08 $layer=POLY_cond $X=0.515 $Y=1.51
+ $X2=0.585 $Y2=1.51
r134 47 71 4.92601 $w=1.8e-07 $l=1.65e-07 $layer=LI1_cond $X=3.645 $Y=2.04
+ $X2=3.48 $Y2=2.04
r135 47 68 11.9092 $w=4.98e-07 $l=4.4e-07 $layer=LI1_cond $X=3.645 $Y=1.95
+ $X2=3.645 $Y2=1.51
r136 46 71 22.1818 $w=1.78e-07 $l=3.6e-07 $layer=LI1_cond $X=3.12 $Y=2.04
+ $X2=3.48 $Y2=2.04
r137 45 46 29.5758 $w=1.78e-07 $l=4.8e-07 $layer=LI1_cond $X=2.64 $Y=2.04
+ $X2=3.12 $Y2=2.04
r138 44 45 29.5758 $w=1.78e-07 $l=4.8e-07 $layer=LI1_cond $X=2.16 $Y=2.04
+ $X2=2.64 $Y2=2.04
r139 43 44 29.5758 $w=1.78e-07 $l=4.8e-07 $layer=LI1_cond $X=1.68 $Y=2.04
+ $X2=2.16 $Y2=2.04
r140 43 72 16.3283 $w=1.78e-07 $l=2.65e-07 $layer=LI1_cond $X=1.68 $Y=2.04
+ $X2=1.415 $Y2=2.04
r141 42 72 5.2341 $w=1.8e-07 $l=1.8e-07 $layer=LI1_cond $X=1.235 $Y=2.04
+ $X2=1.415 $Y2=2.04
r142 41 63 21.8577 $w=3.3e-07 $l=1.25e-07 $layer=POLY_cond $X=1.25 $Y=1.51
+ $X2=1.375 $Y2=1.51
r143 41 61 41.0924 $w=3.3e-07 $l=2.35e-07 $layer=POLY_cond $X=1.25 $Y=1.51
+ $X2=1.015 $Y2=1.51
r144 40 41 145.28 $w=1.7e-07 $l=1.7e-07 $layer=licon1_POLY $count=1 $X=1.25
+ $Y=1.51 $X2=1.25 $Y2=1.51
r145 38 42 7.66235 $w=5.28e-07 $l=3.05e-07 $layer=LI1_cond $X=1.235 $Y=1.645
+ $X2=1.235 $Y2=1.95
r146 38 40 2.78647 $w=3.6e-07 $l=1.1e-07 $layer=LI1_cond $X=1.235 $Y=1.645
+ $X2=1.235 $Y2=1.535
r147 36 60 6.12014 $w=3.3e-07 $l=3.5e-08 $layer=POLY_cond $X=0.91 $Y=1.51
+ $X2=0.945 $Y2=1.51
r148 36 58 56.8299 $w=3.3e-07 $l=3.25e-07 $layer=POLY_cond $X=0.91 $Y=1.51
+ $X2=0.585 $Y2=1.51
r149 35 36 72.64 $w=1.7e-07 $l=3.4e-07 $layer=licon1_POLY $count=2 $X=0.91
+ $Y=1.51 $X2=0.91 $Y2=1.51
r150 33 40 4.55968 $w=2.2e-07 $l=1.8e-07 $layer=LI1_cond $X=1.055 $Y=1.535
+ $X2=1.235 $Y2=1.535
r151 33 35 7.59565 $w=2.18e-07 $l=1.45e-07 $layer=LI1_cond $X=1.055 $Y=1.535
+ $X2=0.91 $Y2=1.535
r152 31 70 405.085 $w=1.5e-07 $l=7.9e-07 $layer=POLY_cond $X=3.625 $Y=2.465
+ $X2=3.625 $Y2=1.675
r153 27 69 282.021 $w=1.5e-07 $l=5.5e-07 $layer=POLY_cond $X=3.605 $Y=0.745
+ $X2=3.605 $Y2=1.295
r154 21 64 21.2229 $w=1.5e-07 $l=1.65e-07 $layer=POLY_cond $X=1.445 $Y=1.675
+ $X2=1.445 $Y2=1.51
r155 21 23 405.085 $w=1.5e-07 $l=7.9e-07 $layer=POLY_cond $X=1.445 $Y=1.675
+ $X2=1.445 $Y2=2.465
r156 17 63 21.2229 $w=1.5e-07 $l=1.65e-07 $layer=POLY_cond $X=1.375 $Y=1.345
+ $X2=1.375 $Y2=1.51
r157 17 19 307.66 $w=1.5e-07 $l=6e-07 $layer=POLY_cond $X=1.375 $Y=1.345
+ $X2=1.375 $Y2=0.745
r158 13 61 21.2229 $w=1.5e-07 $l=1.65e-07 $layer=POLY_cond $X=1.015 $Y=1.675
+ $X2=1.015 $Y2=1.51
r159 13 15 405.085 $w=1.5e-07 $l=7.9e-07 $layer=POLY_cond $X=1.015 $Y=1.675
+ $X2=1.015 $Y2=2.465
r160 9 60 21.2229 $w=1.5e-07 $l=1.65e-07 $layer=POLY_cond $X=0.945 $Y=1.345
+ $X2=0.945 $Y2=1.51
r161 9 11 307.66 $w=1.5e-07 $l=6e-07 $layer=POLY_cond $X=0.945 $Y=1.345
+ $X2=0.945 $Y2=0.745
r162 5 58 21.2229 $w=1.5e-07 $l=1.65e-07 $layer=POLY_cond $X=0.585 $Y=1.675
+ $X2=0.585 $Y2=1.51
r163 5 7 405.085 $w=1.5e-07 $l=7.9e-07 $layer=POLY_cond $X=0.585 $Y=1.675
+ $X2=0.585 $Y2=2.465
r164 1 56 21.2229 $w=1.5e-07 $l=1.65e-07 $layer=POLY_cond $X=0.515 $Y=1.345
+ $X2=0.515 $Y2=1.51
r165 1 3 307.66 $w=1.5e-07 $l=6e-07 $layer=POLY_cond $X=0.515 $Y=1.345 $X2=0.515
+ $Y2=0.745
.ends

.subckt PM_SKY130_FD_SC_LP__O2BB2AI_4%B2 3 7 11 15 19 23 27 31 33 34 35 36 60
c83 60 0 2.01581e-19 $X=3.195 $Y=1.51
c84 36 0 1.08037e-19 $X=3.12 $Y=1.665
c85 27 0 6.61592e-20 $X=3.095 $Y=0.745
r86 59 60 17.4861 $w=3.3e-07 $l=1e-07 $layer=POLY_cond $X=3.095 $Y=1.51
+ $X2=3.195 $Y2=1.51
r87 57 59 31.475 $w=3.3e-07 $l=1.8e-07 $layer=POLY_cond $X=2.915 $Y=1.51
+ $X2=3.095 $Y2=1.51
r88 57 58 145.28 $w=1.7e-07 $l=1.7e-07 $layer=licon1_POLY $count=1 $X=2.915
+ $Y=1.51 $X2=2.915 $Y2=1.51
r89 55 57 26.2292 $w=3.3e-07 $l=1.5e-07 $layer=POLY_cond $X=2.765 $Y=1.51
+ $X2=2.915 $Y2=1.51
r90 54 55 17.4861 $w=3.3e-07 $l=1e-07 $layer=POLY_cond $X=2.665 $Y=1.51
+ $X2=2.765 $Y2=1.51
r91 52 54 15.7375 $w=3.3e-07 $l=9e-08 $layer=POLY_cond $X=2.575 $Y=1.51
+ $X2=2.665 $Y2=1.51
r92 52 53 145.28 $w=1.7e-07 $l=1.7e-07 $layer=licon1_POLY $count=1 $X=2.575
+ $Y=1.51 $X2=2.575 $Y2=1.51
r93 50 52 41.9667 $w=3.3e-07 $l=2.4e-07 $layer=POLY_cond $X=2.335 $Y=1.51
+ $X2=2.575 $Y2=1.51
r94 49 53 11.0375 $w=3.53e-07 $l=3.4e-07 $layer=LI1_cond $X=2.235 $Y=1.602
+ $X2=2.575 $Y2=1.602
r95 48 50 17.4861 $w=3.3e-07 $l=1e-07 $layer=POLY_cond $X=2.235 $Y=1.51
+ $X2=2.335 $Y2=1.51
r96 48 49 145.28 $w=1.7e-07 $l=1.7e-07 $layer=licon1_POLY $count=1 $X=2.235
+ $Y=1.51 $X2=2.235 $Y2=1.51
r97 46 48 57.7042 $w=3.3e-07 $l=3.3e-07 $layer=POLY_cond $X=1.905 $Y=1.51
+ $X2=2.235 $Y2=1.51
r98 44 46 1.74861 $w=3.3e-07 $l=1e-08 $layer=POLY_cond $X=1.895 $Y=1.51
+ $X2=1.905 $Y2=1.51
r99 44 45 145.28 $w=1.7e-07 $l=1.7e-07 $layer=licon1_POLY $count=1 $X=1.895
+ $Y=1.51 $X2=1.895 $Y2=1.51
r100 41 44 15.7375 $w=3.3e-07 $l=9e-08 $layer=POLY_cond $X=1.805 $Y=1.51
+ $X2=1.895 $Y2=1.51
r101 36 58 6.65495 $w=3.53e-07 $l=2.05e-07 $layer=LI1_cond $X=3.12 $Y=1.602
+ $X2=2.915 $Y2=1.602
r102 35 58 8.92738 $w=3.53e-07 $l=2.75e-07 $layer=LI1_cond $X=2.64 $Y=1.602
+ $X2=2.915 $Y2=1.602
r103 35 53 2.11011 $w=3.53e-07 $l=6.5e-08 $layer=LI1_cond $X=2.64 $Y=1.602
+ $X2=2.575 $Y2=1.602
r104 34 49 2.43474 $w=3.53e-07 $l=7.5e-08 $layer=LI1_cond $X=2.16 $Y=1.602
+ $X2=2.235 $Y2=1.602
r105 34 45 8.60274 $w=3.53e-07 $l=2.65e-07 $layer=LI1_cond $X=2.16 $Y=1.602
+ $X2=1.895 $Y2=1.602
r106 33 45 6.97958 $w=3.53e-07 $l=2.15e-07 $layer=LI1_cond $X=1.68 $Y=1.602
+ $X2=1.895 $Y2=1.602
r107 29 60 21.2229 $w=1.5e-07 $l=1.65e-07 $layer=POLY_cond $X=3.195 $Y=1.675
+ $X2=3.195 $Y2=1.51
r108 29 31 405.085 $w=1.5e-07 $l=7.9e-07 $layer=POLY_cond $X=3.195 $Y=1.675
+ $X2=3.195 $Y2=2.465
r109 25 59 21.2229 $w=1.5e-07 $l=1.65e-07 $layer=POLY_cond $X=3.095 $Y=1.345
+ $X2=3.095 $Y2=1.51
r110 25 27 307.66 $w=1.5e-07 $l=6e-07 $layer=POLY_cond $X=3.095 $Y=1.345
+ $X2=3.095 $Y2=0.745
r111 21 55 21.2229 $w=1.5e-07 $l=1.65e-07 $layer=POLY_cond $X=2.765 $Y=1.675
+ $X2=2.765 $Y2=1.51
r112 21 23 405.085 $w=1.5e-07 $l=7.9e-07 $layer=POLY_cond $X=2.765 $Y=1.675
+ $X2=2.765 $Y2=2.465
r113 17 54 21.2229 $w=1.5e-07 $l=1.65e-07 $layer=POLY_cond $X=2.665 $Y=1.345
+ $X2=2.665 $Y2=1.51
r114 17 19 307.66 $w=1.5e-07 $l=6e-07 $layer=POLY_cond $X=2.665 $Y=1.345
+ $X2=2.665 $Y2=0.745
r115 13 50 21.2229 $w=1.5e-07 $l=1.65e-07 $layer=POLY_cond $X=2.335 $Y=1.675
+ $X2=2.335 $Y2=1.51
r116 13 15 405.085 $w=1.5e-07 $l=7.9e-07 $layer=POLY_cond $X=2.335 $Y=1.675
+ $X2=2.335 $Y2=2.465
r117 9 48 21.2229 $w=1.5e-07 $l=1.65e-07 $layer=POLY_cond $X=2.235 $Y=1.345
+ $X2=2.235 $Y2=1.51
r118 9 11 307.66 $w=1.5e-07 $l=6e-07 $layer=POLY_cond $X=2.235 $Y=1.345
+ $X2=2.235 $Y2=0.745
r119 5 46 21.2229 $w=1.5e-07 $l=1.65e-07 $layer=POLY_cond $X=1.905 $Y=1.675
+ $X2=1.905 $Y2=1.51
r120 5 7 405.085 $w=1.5e-07 $l=7.9e-07 $layer=POLY_cond $X=1.905 $Y=1.675
+ $X2=1.905 $Y2=2.465
r121 1 41 21.2229 $w=1.5e-07 $l=1.65e-07 $layer=POLY_cond $X=1.805 $Y=1.345
+ $X2=1.805 $Y2=1.51
r122 1 3 307.66 $w=1.5e-07 $l=6e-07 $layer=POLY_cond $X=1.805 $Y=1.345 $X2=1.805
+ $Y2=0.745
.ends

.subckt PM_SKY130_FD_SC_LP__O2BB2AI_4%A_804_39# 1 2 3 4 5 6 21 25 29 33 37 41 45
+ 49 51 60 61 62 65 69 73 77 81 85 87 91 95 97 100 101 102 104 108 110 115 125
c190 97 0 5.44017e-20 $X=9.815 $Y=1.165
r191 122 123 57.7042 $w=3.3e-07 $l=3.3e-07 $layer=POLY_cond $X=5.055 $Y=1.51
+ $X2=5.385 $Y2=1.51
r192 121 122 17.4861 $w=3.3e-07 $l=1e-07 $layer=POLY_cond $X=4.955 $Y=1.51
+ $X2=5.055 $Y2=1.51
r193 120 121 71.6931 $w=3.3e-07 $l=4.1e-07 $layer=POLY_cond $X=4.545 $Y=1.51
+ $X2=4.955 $Y2=1.51
r194 119 120 3.49723 $w=3.3e-07 $l=2e-08 $layer=POLY_cond $X=4.525 $Y=1.51
+ $X2=4.545 $Y2=1.51
r195 112 113 9.01001 $w=3.28e-07 $l=2.58e-07 $layer=LI1_cond $X=9.31 $Y=0.907
+ $X2=9.31 $Y2=1.165
r196 110 112 7.22896 $w=3.28e-07 $l=2.07e-07 $layer=LI1_cond $X=9.31 $Y=0.7
+ $X2=9.31 $Y2=0.907
r197 104 106 5.26282 $w=2.98e-07 $l=1.37e-07 $layer=LI1_cond $X=8.435 $Y=0.77
+ $X2=8.435 $Y2=0.907
r198 99 100 31.4242 $w=1.78e-07 $l=5.1e-07 $layer=LI1_cond $X=9.905 $Y=1.255
+ $X2=9.905 $Y2=1.765
r199 98 113 4.28565 $w=1.8e-07 $l=1.65e-07 $layer=LI1_cond $X=9.475 $Y=1.165
+ $X2=9.31 $Y2=1.165
r200 97 99 6.81649 $w=1.8e-07 $l=1.27279e-07 $layer=LI1_cond $X=9.815 $Y=1.165
+ $X2=9.905 $Y2=1.255
r201 97 98 20.9495 $w=1.78e-07 $l=3.4e-07 $layer=LI1_cond $X=9.815 $Y=1.165
+ $X2=9.475 $Y2=1.165
r202 96 115 5.16603 $w=1.8e-07 $l=9e-08 $layer=LI1_cond $X=9.39 $Y=1.855 $X2=9.3
+ $Y2=1.855
r203 95 100 6.81649 $w=1.8e-07 $l=1.27279e-07 $layer=LI1_cond $X=9.815 $Y=1.855
+ $X2=9.905 $Y2=1.765
r204 95 96 26.1869 $w=1.78e-07 $l=4.25e-07 $layer=LI1_cond $X=9.815 $Y=1.855
+ $X2=9.39 $Y2=1.855
r205 91 93 57.303 $w=1.78e-07 $l=9.3e-07 $layer=LI1_cond $X=9.3 $Y=1.98 $X2=9.3
+ $Y2=2.91
r206 89 115 1.34256 $w=1.8e-07 $l=9e-08 $layer=LI1_cond $X=9.3 $Y=1.945 $X2=9.3
+ $Y2=1.855
r207 89 91 2.15657 $w=1.78e-07 $l=3.5e-08 $layer=LI1_cond $X=9.3 $Y=1.945
+ $X2=9.3 $Y2=1.98
r208 88 106 3.58581 $w=1.85e-07 $l=1.5e-07 $layer=LI1_cond $X=8.585 $Y=0.907
+ $X2=8.435 $Y2=0.907
r209 87 112 4.14273 $w=1.85e-07 $l=1.65e-07 $layer=LI1_cond $X=9.145 $Y=0.907
+ $X2=9.31 $Y2=0.907
r210 87 88 33.5725 $w=1.83e-07 $l=5.6e-07 $layer=LI1_cond $X=9.145 $Y=0.907
+ $X2=8.585 $Y2=0.907
r211 86 108 5.40251 $w=1.8e-07 $l=9.5e-08 $layer=LI1_cond $X=8.53 $Y=1.855
+ $X2=8.435 $Y2=1.855
r212 85 115 5.16603 $w=1.8e-07 $l=9e-08 $layer=LI1_cond $X=9.21 $Y=1.855 $X2=9.3
+ $Y2=1.855
r213 85 86 41.899 $w=1.78e-07 $l=6.8e-07 $layer=LI1_cond $X=9.21 $Y=1.855
+ $X2=8.53 $Y2=1.855
r214 81 83 54.2871 $w=1.88e-07 $l=9.3e-07 $layer=LI1_cond $X=8.435 $Y=1.98
+ $X2=8.435 $Y2=2.91
r215 79 108 1.14861 $w=1.9e-07 $l=9e-08 $layer=LI1_cond $X=8.435 $Y=1.945
+ $X2=8.435 $Y2=1.855
r216 79 81 2.04306 $w=1.88e-07 $l=3.5e-08 $layer=LI1_cond $X=8.435 $Y=1.945
+ $X2=8.435 $Y2=1.98
r217 78 102 5.40251 $w=1.8e-07 $l=9.5e-08 $layer=LI1_cond $X=7.33 $Y=1.855
+ $X2=7.235 $Y2=1.855
r218 77 108 5.40251 $w=1.8e-07 $l=9.5e-08 $layer=LI1_cond $X=8.34 $Y=1.855
+ $X2=8.435 $Y2=1.855
r219 77 78 62.2323 $w=1.78e-07 $l=1.01e-06 $layer=LI1_cond $X=8.34 $Y=1.855
+ $X2=7.33 $Y2=1.855
r220 73 75 54.2871 $w=1.88e-07 $l=9.3e-07 $layer=LI1_cond $X=7.235 $Y=1.98
+ $X2=7.235 $Y2=2.91
r221 71 102 1.14861 $w=1.9e-07 $l=9e-08 $layer=LI1_cond $X=7.235 $Y=1.945
+ $X2=7.235 $Y2=1.855
r222 71 73 2.04306 $w=1.88e-07 $l=3.5e-08 $layer=LI1_cond $X=7.235 $Y=1.945
+ $X2=7.235 $Y2=1.98
r223 70 101 5.40251 $w=1.8e-07 $l=9.5e-08 $layer=LI1_cond $X=6.47 $Y=1.855
+ $X2=6.375 $Y2=1.855
r224 69 102 5.40251 $w=1.8e-07 $l=9.5e-08 $layer=LI1_cond $X=7.14 $Y=1.855
+ $X2=7.235 $Y2=1.855
r225 69 70 41.2828 $w=1.78e-07 $l=6.7e-07 $layer=LI1_cond $X=7.14 $Y=1.855
+ $X2=6.47 $Y2=1.855
r226 65 67 54.2871 $w=1.88e-07 $l=9.3e-07 $layer=LI1_cond $X=6.375 $Y=1.98
+ $X2=6.375 $Y2=2.91
r227 63 101 1.14861 $w=1.9e-07 $l=9e-08 $layer=LI1_cond $X=6.375 $Y=1.945
+ $X2=6.375 $Y2=1.855
r228 63 65 2.04306 $w=1.88e-07 $l=3.5e-08 $layer=LI1_cond $X=6.375 $Y=1.945
+ $X2=6.375 $Y2=1.98
r229 61 101 5.40251 $w=1.8e-07 $l=9.5e-08 $layer=LI1_cond $X=6.28 $Y=1.855
+ $X2=6.375 $Y2=1.855
r230 61 62 34.197 $w=1.78e-07 $l=5.55e-07 $layer=LI1_cond $X=6.28 $Y=1.855
+ $X2=5.725 $Y2=1.855
r231 60 62 6.82373 $w=1.8e-07 $l=1.25499e-07 $layer=LI1_cond $X=5.64 $Y=1.765
+ $X2=5.725 $Y2=1.855
r232 59 60 11.0909 $w=1.68e-07 $l=1.7e-07 $layer=LI1_cond $X=5.64 $Y=1.595
+ $X2=5.64 $Y2=1.765
r233 58 125 6.12014 $w=3.3e-07 $l=3.5e-08 $layer=POLY_cond $X=5.53 $Y=1.51
+ $X2=5.565 $Y2=1.51
r234 58 123 25.3549 $w=3.3e-07 $l=1.45e-07 $layer=POLY_cond $X=5.53 $Y=1.51
+ $X2=5.385 $Y2=1.51
r235 57 58 72.64 $w=1.7e-07 $l=3.4e-07 $layer=licon1_POLY $count=2 $X=5.53
+ $Y=1.51 $X2=5.53 $Y2=1.51
r236 54 119 2.62292 $w=3.3e-07 $l=1.5e-08 $layer=POLY_cond $X=4.51 $Y=1.51
+ $X2=4.525 $Y2=1.51
r237 54 116 72.5674 $w=3.3e-07 $l=4.15e-07 $layer=POLY_cond $X=4.51 $Y=1.51
+ $X2=4.095 $Y2=1.51
r238 53 57 66.5455 $w=1.68e-07 $l=1.02e-06 $layer=LI1_cond $X=4.51 $Y=1.51
+ $X2=5.53 $Y2=1.51
r239 53 54 72.64 $w=1.7e-07 $l=3.4e-07 $layer=licon1_POLY $count=2 $X=4.51
+ $Y=1.51 $X2=4.51 $Y2=1.51
r240 51 59 6.81649 $w=1.7e-07 $l=1.20208e-07 $layer=LI1_cond $X=5.555 $Y=1.51
+ $X2=5.64 $Y2=1.595
r241 51 57 1.63102 $w=1.68e-07 $l=2.5e-08 $layer=LI1_cond $X=5.555 $Y=1.51
+ $X2=5.53 $Y2=1.51
r242 47 125 21.2229 $w=1.5e-07 $l=1.65e-07 $layer=POLY_cond $X=5.565 $Y=1.345
+ $X2=5.565 $Y2=1.51
r243 47 49 307.66 $w=1.5e-07 $l=6e-07 $layer=POLY_cond $X=5.565 $Y=1.345
+ $X2=5.565 $Y2=0.745
r244 43 123 21.2229 $w=1.5e-07 $l=1.65e-07 $layer=POLY_cond $X=5.385 $Y=1.675
+ $X2=5.385 $Y2=1.51
r245 43 45 405.085 $w=1.5e-07 $l=7.9e-07 $layer=POLY_cond $X=5.385 $Y=1.675
+ $X2=5.385 $Y2=2.465
r246 39 122 21.2229 $w=1.5e-07 $l=1.65e-07 $layer=POLY_cond $X=5.055 $Y=1.345
+ $X2=5.055 $Y2=1.51
r247 39 41 307.66 $w=1.5e-07 $l=6e-07 $layer=POLY_cond $X=5.055 $Y=1.345
+ $X2=5.055 $Y2=0.745
r248 35 121 21.2229 $w=1.5e-07 $l=1.65e-07 $layer=POLY_cond $X=4.955 $Y=1.675
+ $X2=4.955 $Y2=1.51
r249 35 37 405.085 $w=1.5e-07 $l=7.9e-07 $layer=POLY_cond $X=4.955 $Y=1.675
+ $X2=4.955 $Y2=2.465
r250 31 120 21.2229 $w=1.5e-07 $l=1.65e-07 $layer=POLY_cond $X=4.545 $Y=1.345
+ $X2=4.545 $Y2=1.51
r251 31 33 307.66 $w=1.5e-07 $l=6e-07 $layer=POLY_cond $X=4.545 $Y=1.345
+ $X2=4.545 $Y2=0.745
r252 27 119 21.2229 $w=1.5e-07 $l=1.65e-07 $layer=POLY_cond $X=4.525 $Y=1.675
+ $X2=4.525 $Y2=1.51
r253 27 29 405.085 $w=1.5e-07 $l=7.9e-07 $layer=POLY_cond $X=4.525 $Y=1.675
+ $X2=4.525 $Y2=2.465
r254 23 116 21.2229 $w=1.5e-07 $l=1.65e-07 $layer=POLY_cond $X=4.095 $Y=1.675
+ $X2=4.095 $Y2=1.51
r255 23 25 405.085 $w=1.5e-07 $l=7.9e-07 $layer=POLY_cond $X=4.095 $Y=1.675
+ $X2=4.095 $Y2=2.465
r256 19 116 21.2229 $w=1.5e-07 $l=1.65e-07 $layer=POLY_cond $X=4.095 $Y=1.345
+ $X2=4.095 $Y2=1.51
r257 19 21 307.66 $w=1.5e-07 $l=6e-07 $layer=POLY_cond $X=4.095 $Y=1.345
+ $X2=4.095 $Y2=0.745
r258 6 93 400 $w=1.7e-07 $l=1.14286e-06 $layer=licon1_PDIFF $count=1 $X=9.155
+ $Y=1.835 $X2=9.295 $Y2=2.91
r259 6 91 400 $w=1.7e-07 $l=2.03286e-07 $layer=licon1_PDIFF $count=1 $X=9.155
+ $Y=1.835 $X2=9.295 $Y2=1.98
r260 5 83 400 $w=1.7e-07 $l=1.14286e-06 $layer=licon1_PDIFF $count=1 $X=8.295
+ $Y=1.835 $X2=8.435 $Y2=2.91
r261 5 81 400 $w=1.7e-07 $l=2.03286e-07 $layer=licon1_PDIFF $count=1 $X=8.295
+ $Y=1.835 $X2=8.435 $Y2=1.98
r262 4 75 400 $w=1.7e-07 $l=1.14286e-06 $layer=licon1_PDIFF $count=1 $X=7.095
+ $Y=1.835 $X2=7.235 $Y2=2.91
r263 4 73 400 $w=1.7e-07 $l=2.03286e-07 $layer=licon1_PDIFF $count=1 $X=7.095
+ $Y=1.835 $X2=7.235 $Y2=1.98
r264 3 67 400 $w=1.7e-07 $l=1.14286e-06 $layer=licon1_PDIFF $count=1 $X=6.235
+ $Y=1.835 $X2=6.375 $Y2=2.91
r265 3 65 400 $w=1.7e-07 $l=2.03286e-07 $layer=licon1_PDIFF $count=1 $X=6.235
+ $Y=1.835 $X2=6.375 $Y2=1.98
r266 2 110 91 $w=1.7e-07 $l=4.3946e-07 $layer=licon1_NDIFF $count=2 $X=9.17
+ $Y=0.325 $X2=9.31 $Y2=0.7
r267 1 104 182 $w=1.7e-07 $l=5.10221e-07 $layer=licon1_NDIFF $count=1 $X=8.31
+ $Y=0.325 $X2=8.45 $Y2=0.77
.ends

.subckt PM_SKY130_FD_SC_LP__O2BB2AI_4%A1_N 3 7 11 15 19 23 27 31 38 41 42 58 60
+ 67
c92 23 0 1.73643e-19 $X=7.375 $Y=0.745
r93 55 56 13.1146 $w=3.3e-07 $l=7.5e-08 $layer=POLY_cond $X=7.375 $Y=1.51
+ $X2=7.45 $Y2=1.51
r94 54 55 62.0758 $w=3.3e-07 $l=3.55e-07 $layer=POLY_cond $X=7.02 $Y=1.51
+ $X2=7.375 $Y2=1.51
r95 53 54 13.1146 $w=3.3e-07 $l=7.5e-08 $layer=POLY_cond $X=6.945 $Y=1.51
+ $X2=7.02 $Y2=1.51
r96 50 51 13.1146 $w=3.3e-07 $l=7.5e-08 $layer=POLY_cond $X=6.515 $Y=1.51
+ $X2=6.59 $Y2=1.51
r97 49 60 1.10754 $w=3.83e-07 $l=3.7e-08 $layer=LI1_cond $X=6.41 $Y=1.402
+ $X2=6.373 $Y2=1.402
r98 48 50 18.3604 $w=3.3e-07 $l=1.05e-07 $layer=POLY_cond $X=6.41 $Y=1.51
+ $X2=6.515 $Y2=1.51
r99 48 49 145.28 $w=1.7e-07 $l=1.7e-07 $layer=licon1_POLY $count=1 $X=6.41
+ $Y=1.51 $X2=6.41 $Y2=1.51
r100 45 48 43.7153 $w=3.3e-07 $l=2.5e-07 $layer=POLY_cond $X=6.16 $Y=1.51
+ $X2=6.41 $Y2=1.51
r101 42 67 6.19425 $w=3.83e-07 $l=8.5e-08 $layer=LI1_cond $X=6.48 $Y=1.402
+ $X2=6.565 $Y2=1.402
r102 42 49 2.09535 $w=3.83e-07 $l=7e-08 $layer=LI1_cond $X=6.48 $Y=1.402
+ $X2=6.41 $Y2=1.402
r103 41 60 11.1652 $w=3.83e-07 $l=3.73e-07 $layer=LI1_cond $X=6 $Y=1.402
+ $X2=6.373 $Y2=1.402
r104 39 58 6.12014 $w=3.3e-07 $l=3.5e-08 $layer=POLY_cond $X=7.77 $Y=1.51
+ $X2=7.805 $Y2=1.51
r105 39 56 55.9556 $w=3.3e-07 $l=3.2e-07 $layer=POLY_cond $X=7.77 $Y=1.51
+ $X2=7.45 $Y2=1.51
r106 38 39 72.64 $w=1.7e-07 $l=3.4e-07 $layer=licon1_POLY $count=2 $X=7.77
+ $Y=1.51 $X2=7.77 $Y2=1.51
r107 36 53 34.0979 $w=3.3e-07 $l=1.95e-07 $layer=POLY_cond $X=6.75 $Y=1.51
+ $X2=6.945 $Y2=1.51
r108 36 51 27.9778 $w=3.3e-07 $l=1.6e-07 $layer=POLY_cond $X=6.75 $Y=1.51
+ $X2=6.59 $Y2=1.51
r109 35 38 66.5455 $w=1.68e-07 $l=1.02e-06 $layer=LI1_cond $X=6.75 $Y=1.51
+ $X2=7.77 $Y2=1.51
r110 35 67 12.0695 $w=1.68e-07 $l=1.85e-07 $layer=LI1_cond $X=6.75 $Y=1.51
+ $X2=6.565 $Y2=1.51
r111 35 36 72.64 $w=1.7e-07 $l=3.4e-07 $layer=licon1_POLY $count=2 $X=6.75
+ $Y=1.51 $X2=6.75 $Y2=1.51
r112 29 58 21.2229 $w=1.5e-07 $l=1.65e-07 $layer=POLY_cond $X=7.805 $Y=1.345
+ $X2=7.805 $Y2=1.51
r113 29 31 307.66 $w=1.5e-07 $l=6e-07 $layer=POLY_cond $X=7.805 $Y=1.345
+ $X2=7.805 $Y2=0.745
r114 25 56 21.2229 $w=1.5e-07 $l=1.65e-07 $layer=POLY_cond $X=7.45 $Y=1.675
+ $X2=7.45 $Y2=1.51
r115 25 27 405.085 $w=1.5e-07 $l=7.9e-07 $layer=POLY_cond $X=7.45 $Y=1.675
+ $X2=7.45 $Y2=2.465
r116 21 55 21.2229 $w=1.5e-07 $l=1.65e-07 $layer=POLY_cond $X=7.375 $Y=1.345
+ $X2=7.375 $Y2=1.51
r117 21 23 307.66 $w=1.5e-07 $l=6e-07 $layer=POLY_cond $X=7.375 $Y=1.345
+ $X2=7.375 $Y2=0.745
r118 17 54 21.2229 $w=1.5e-07 $l=1.65e-07 $layer=POLY_cond $X=7.02 $Y=1.675
+ $X2=7.02 $Y2=1.51
r119 17 19 405.085 $w=1.5e-07 $l=7.9e-07 $layer=POLY_cond $X=7.02 $Y=1.675
+ $X2=7.02 $Y2=2.465
r120 13 53 21.2229 $w=1.5e-07 $l=1.65e-07 $layer=POLY_cond $X=6.945 $Y=1.345
+ $X2=6.945 $Y2=1.51
r121 13 15 307.66 $w=1.5e-07 $l=6e-07 $layer=POLY_cond $X=6.945 $Y=1.345
+ $X2=6.945 $Y2=0.745
r122 9 51 21.2229 $w=1.5e-07 $l=1.65e-07 $layer=POLY_cond $X=6.59 $Y=1.675
+ $X2=6.59 $Y2=1.51
r123 9 11 405.085 $w=1.5e-07 $l=7.9e-07 $layer=POLY_cond $X=6.59 $Y=1.675
+ $X2=6.59 $Y2=2.465
r124 5 50 21.2229 $w=1.5e-07 $l=1.65e-07 $layer=POLY_cond $X=6.515 $Y=1.345
+ $X2=6.515 $Y2=1.51
r125 5 7 307.66 $w=1.5e-07 $l=6e-07 $layer=POLY_cond $X=6.515 $Y=1.345 $X2=6.515
+ $Y2=0.745
r126 1 45 21.2229 $w=1.5e-07 $l=1.65e-07 $layer=POLY_cond $X=6.16 $Y=1.675
+ $X2=6.16 $Y2=1.51
r127 1 3 405.085 $w=1.5e-07 $l=7.9e-07 $layer=POLY_cond $X=6.16 $Y=1.675
+ $X2=6.16 $Y2=2.465
.ends

.subckt PM_SKY130_FD_SC_LP__O2BB2AI_4%A2_N 1 3 6 8 10 13 15 17 20 22 24 27 31 34
+ 35 51 53 61
c85 20 0 1.84104e-19 $X=9.095 $Y=0.745
r86 51 52 1.92287 $w=3.76e-07 $l=1.5e-08 $layer=POLY_cond $X=9.51 $Y=1.535
+ $X2=9.525 $Y2=1.535
r87 48 49 1.92287 $w=3.76e-07 $l=1.5e-08 $layer=POLY_cond $X=9.08 $Y=1.535
+ $X2=9.095 $Y2=1.535
r88 47 53 0.73214 $w=4.23e-07 $l=2.7e-08 $layer=LI1_cond $X=8.79 $Y=1.382
+ $X2=8.763 $Y2=1.382
r89 46 48 37.1755 $w=3.76e-07 $l=2.9e-07 $layer=POLY_cond $X=8.79 $Y=1.535
+ $X2=9.08 $Y2=1.535
r90 46 47 145.28 $w=1.7e-07 $l=1.7e-07 $layer=licon1_POLY $count=1 $X=8.79
+ $Y=1.51 $X2=8.79 $Y2=1.51
r91 44 46 16.0239 $w=3.76e-07 $l=1.25e-07 $layer=POLY_cond $X=8.665 $Y=1.535
+ $X2=8.79 $Y2=1.535
r92 43 44 1.92287 $w=3.76e-07 $l=1.5e-08 $layer=POLY_cond $X=8.65 $Y=1.535
+ $X2=8.665 $Y2=1.535
r93 42 53 8.4874 $w=4.23e-07 $l=3.13e-07 $layer=LI1_cond $X=8.45 $Y=1.382
+ $X2=8.763 $Y2=1.382
r94 41 43 25.6383 $w=3.76e-07 $l=2e-07 $layer=POLY_cond $X=8.45 $Y=1.535
+ $X2=8.65 $Y2=1.535
r95 41 42 145.28 $w=1.7e-07 $l=1.7e-07 $layer=licon1_POLY $count=1 $X=8.45
+ $Y=1.51 $X2=8.45 $Y2=1.51
r96 39 41 27.5612 $w=3.76e-07 $l=2.15e-07 $layer=POLY_cond $X=8.235 $Y=1.535
+ $X2=8.45 $Y2=1.535
r97 38 39 1.92287 $w=3.76e-07 $l=1.5e-08 $layer=POLY_cond $X=8.22 $Y=1.535
+ $X2=8.235 $Y2=1.535
r98 35 61 6.86232 $w=4.23e-07 $l=9.5e-08 $layer=LI1_cond $X=8.88 $Y=1.382
+ $X2=8.975 $Y2=1.382
r99 35 47 2.44047 $w=4.23e-07 $l=9e-08 $layer=LI1_cond $X=8.88 $Y=1.382 $X2=8.79
+ $Y2=1.382
r100 34 42 1.35582 $w=4.23e-07 $l=5e-08 $layer=LI1_cond $X=8.4 $Y=1.382 $X2=8.45
+ $Y2=1.382
r101 32 51 5.12766 $w=3.76e-07 $l=4e-08 $layer=POLY_cond $X=9.47 $Y=1.535
+ $X2=9.51 $Y2=1.535
r102 32 49 48.0718 $w=3.76e-07 $l=3.75e-07 $layer=POLY_cond $X=9.47 $Y=1.535
+ $X2=9.095 $Y2=1.535
r103 31 61 32.2941 $w=1.68e-07 $l=4.95e-07 $layer=LI1_cond $X=9.47 $Y=1.51
+ $X2=8.975 $Y2=1.51
r104 31 32 72.64 $w=1.7e-07 $l=3.4e-07 $layer=licon1_POLY $count=2 $X=9.47
+ $Y=1.51 $X2=9.47 $Y2=1.51
r105 25 52 24.356 $w=1.5e-07 $l=1.9e-07 $layer=POLY_cond $X=9.525 $Y=1.345
+ $X2=9.525 $Y2=1.535
r106 25 27 307.66 $w=1.5e-07 $l=6e-07 $layer=POLY_cond $X=9.525 $Y=1.345
+ $X2=9.525 $Y2=0.745
r107 22 51 24.356 $w=1.5e-07 $l=1.9e-07 $layer=POLY_cond $X=9.51 $Y=1.725
+ $X2=9.51 $Y2=1.535
r108 22 24 237.787 $w=1.5e-07 $l=7.4e-07 $layer=POLY_cond $X=9.51 $Y=1.725
+ $X2=9.51 $Y2=2.465
r109 18 49 24.356 $w=1.5e-07 $l=1.9e-07 $layer=POLY_cond $X=9.095 $Y=1.345
+ $X2=9.095 $Y2=1.535
r110 18 20 307.66 $w=1.5e-07 $l=6e-07 $layer=POLY_cond $X=9.095 $Y=1.345
+ $X2=9.095 $Y2=0.745
r111 15 48 24.356 $w=1.5e-07 $l=1.9e-07 $layer=POLY_cond $X=9.08 $Y=1.725
+ $X2=9.08 $Y2=1.535
r112 15 17 237.787 $w=1.5e-07 $l=7.4e-07 $layer=POLY_cond $X=9.08 $Y=1.725
+ $X2=9.08 $Y2=2.465
r113 11 44 24.356 $w=1.5e-07 $l=1.9e-07 $layer=POLY_cond $X=8.665 $Y=1.345
+ $X2=8.665 $Y2=1.535
r114 11 13 307.66 $w=1.5e-07 $l=6e-07 $layer=POLY_cond $X=8.665 $Y=1.345
+ $X2=8.665 $Y2=0.745
r115 8 43 24.356 $w=1.5e-07 $l=1.9e-07 $layer=POLY_cond $X=8.65 $Y=1.725
+ $X2=8.65 $Y2=1.535
r116 8 10 237.787 $w=1.5e-07 $l=7.4e-07 $layer=POLY_cond $X=8.65 $Y=1.725
+ $X2=8.65 $Y2=2.465
r117 4 39 24.356 $w=1.5e-07 $l=1.9e-07 $layer=POLY_cond $X=8.235 $Y=1.345
+ $X2=8.235 $Y2=1.535
r118 4 6 307.66 $w=1.5e-07 $l=6e-07 $layer=POLY_cond $X=8.235 $Y=1.345 $X2=8.235
+ $Y2=0.745
r119 1 38 24.356 $w=1.5e-07 $l=1.9e-07 $layer=POLY_cond $X=8.22 $Y=1.725
+ $X2=8.22 $Y2=1.535
r120 1 3 237.787 $w=1.5e-07 $l=7.4e-07 $layer=POLY_cond $X=8.22 $Y=1.725
+ $X2=8.22 $Y2=2.465
.ends

.subckt PM_SKY130_FD_SC_LP__O2BB2AI_4%VPWR 1 2 3 4 5 6 7 8 9 28 30 36 40 44 50
+ 56 62 68 72 74 79 80 82 83 85 86 87 89 104 112 116 121 130 133 136 139 143
r160 142 143 9.3 $w=1.7e-07 $l=1.7e-07 $layer=mcon $count=1 $X=9.84 $Y=3.33
+ $X2=9.84 $Y2=3.33
r161 139 140 9.3 $w=1.7e-07 $l=1.7e-07 $layer=mcon $count=1 $X=8.88 $Y=3.33
+ $X2=8.88 $Y2=3.33
r162 136 137 9.3 $w=1.7e-07 $l=1.7e-07 $layer=mcon $count=1 $X=7.92 $Y=3.33
+ $X2=7.92 $Y2=3.33
r163 133 134 4.65 $w=1.7e-07 $l=3.4e-07 $layer=mcon $count=2 $X=6 $Y=3.33 $X2=6
+ $Y2=3.33
r164 130 131 9.3 $w=1.7e-07 $l=1.7e-07 $layer=mcon $count=1 $X=1.2 $Y=3.33
+ $X2=1.2 $Y2=3.33
r165 127 128 9.3 $w=1.7e-07 $l=1.7e-07 $layer=mcon $count=1 $X=0.24 $Y=3.33
+ $X2=0.24 $Y2=3.33
r166 125 143 0.133793 $w=4.9e-07 $l=4.8e-07 $layer=MET1_cond $X=9.36 $Y=3.33
+ $X2=9.84 $Y2=3.33
r167 125 140 0.133793 $w=4.9e-07 $l=4.8e-07 $layer=MET1_cond $X=9.36 $Y=3.33
+ $X2=8.88 $Y2=3.33
r168 124 125 9.3 $w=1.7e-07 $l=1.7e-07 $layer=mcon $count=1 $X=9.36 $Y=3.33
+ $X2=9.36 $Y2=3.33
r169 122 139 8.61065 $w=1.7e-07 $l=1.65e-07 $layer=LI1_cond $X=9.03 $Y=3.33
+ $X2=8.865 $Y2=3.33
r170 122 124 21.5294 $w=1.68e-07 $l=3.3e-07 $layer=LI1_cond $X=9.03 $Y=3.33
+ $X2=9.36 $Y2=3.33
r171 121 142 4.5891 $w=1.7e-07 $l=2.6e-07 $layer=LI1_cond $X=9.56 $Y=3.33
+ $X2=9.82 $Y2=3.33
r172 121 124 13.0481 $w=1.68e-07 $l=2e-07 $layer=LI1_cond $X=9.56 $Y=3.33
+ $X2=9.36 $Y2=3.33
r173 120 140 0.133793 $w=4.9e-07 $l=4.8e-07 $layer=MET1_cond $X=8.4 $Y=3.33
+ $X2=8.88 $Y2=3.33
r174 120 137 0.133793 $w=4.9e-07 $l=4.8e-07 $layer=MET1_cond $X=8.4 $Y=3.33
+ $X2=7.92 $Y2=3.33
r175 119 120 9.3 $w=1.7e-07 $l=1.7e-07 $layer=mcon $count=1 $X=8.4 $Y=3.33
+ $X2=8.4 $Y2=3.33
r176 117 136 13.3456 $w=1.7e-07 $l=3.35e-07 $layer=LI1_cond $X=8.17 $Y=3.33
+ $X2=7.835 $Y2=3.33
r177 117 119 15.0053 $w=1.68e-07 $l=2.3e-07 $layer=LI1_cond $X=8.17 $Y=3.33
+ $X2=8.4 $Y2=3.33
r178 116 139 8.61065 $w=1.7e-07 $l=1.65e-07 $layer=LI1_cond $X=8.7 $Y=3.33
+ $X2=8.865 $Y2=3.33
r179 116 119 19.5722 $w=1.68e-07 $l=3e-07 $layer=LI1_cond $X=8.7 $Y=3.33 $X2=8.4
+ $Y2=3.33
r180 115 137 0.133793 $w=4.9e-07 $l=4.8e-07 $layer=MET1_cond $X=7.44 $Y=3.33
+ $X2=7.92 $Y2=3.33
r181 114 115 4.65 $w=1.7e-07 $l=3.4e-07 $layer=mcon $count=2 $X=7.44 $Y=3.33
+ $X2=7.44 $Y2=3.33
r182 112 136 13.3456 $w=1.7e-07 $l=3.35e-07 $layer=LI1_cond $X=7.5 $Y=3.33
+ $X2=7.835 $Y2=3.33
r183 112 114 3.91444 $w=1.68e-07 $l=6e-08 $layer=LI1_cond $X=7.5 $Y=3.33
+ $X2=7.44 $Y2=3.33
r184 111 115 0.267585 $w=4.9e-07 $l=9.6e-07 $layer=MET1_cond $X=6.48 $Y=3.33
+ $X2=7.44 $Y2=3.33
r185 111 134 0.133793 $w=4.9e-07 $l=4.8e-07 $layer=MET1_cond $X=6.48 $Y=3.33
+ $X2=6 $Y2=3.33
r186 110 111 9.3 $w=1.7e-07 $l=1.7e-07 $layer=mcon $count=1 $X=6.48 $Y=3.33
+ $X2=6.48 $Y2=3.33
r187 108 133 13.399 $w=1.7e-07 $l=3.38e-07 $layer=LI1_cond $X=6.11 $Y=3.33
+ $X2=5.772 $Y2=3.33
r188 108 110 24.139 $w=1.68e-07 $l=3.7e-07 $layer=LI1_cond $X=6.11 $Y=3.33
+ $X2=6.48 $Y2=3.33
r189 104 133 13.399 $w=1.7e-07 $l=3.37e-07 $layer=LI1_cond $X=5.435 $Y=3.33
+ $X2=5.772 $Y2=3.33
r190 104 106 25.7701 $w=1.68e-07 $l=3.95e-07 $layer=LI1_cond $X=5.435 $Y=3.33
+ $X2=5.04 $Y2=3.33
r191 102 103 4.65 $w=1.7e-07 $l=3.4e-07 $layer=mcon $count=2 $X=4.56 $Y=3.33
+ $X2=4.56 $Y2=3.33
r192 100 103 0.267585 $w=4.9e-07 $l=9.6e-07 $layer=MET1_cond $X=3.6 $Y=3.33
+ $X2=4.56 $Y2=3.33
r193 99 100 3.72 $w=1.7e-07 $l=4.25e-07 $layer=mcon $count=2 $X=3.6 $Y=3.33
+ $X2=3.6 $Y2=3.33
r194 97 100 0.535171 $w=4.9e-07 $l=1.92e-06 $layer=MET1_cond $X=1.68 $Y=3.33
+ $X2=3.6 $Y2=3.33
r195 97 131 0.133793 $w=4.9e-07 $l=4.8e-07 $layer=MET1_cond $X=1.68 $Y=3.33
+ $X2=1.2 $Y2=3.33
r196 96 99 125.262 $w=1.68e-07 $l=1.92e-06 $layer=LI1_cond $X=1.68 $Y=3.33
+ $X2=3.6 $Y2=3.33
r197 96 97 3.72 $w=1.7e-07 $l=4.25e-07 $layer=mcon $count=2 $X=1.68 $Y=3.33
+ $X2=1.68 $Y2=3.33
r198 94 130 8.61065 $w=1.7e-07 $l=1.65e-07 $layer=LI1_cond $X=1.395 $Y=3.33
+ $X2=1.23 $Y2=3.33
r199 94 96 18.5936 $w=1.68e-07 $l=2.85e-07 $layer=LI1_cond $X=1.395 $Y=3.33
+ $X2=1.68 $Y2=3.33
r200 93 131 0.133793 $w=4.9e-07 $l=4.8e-07 $layer=MET1_cond $X=0.72 $Y=3.33
+ $X2=1.2 $Y2=3.33
r201 93 128 0.133793 $w=4.9e-07 $l=4.8e-07 $layer=MET1_cond $X=0.72 $Y=3.33
+ $X2=0.24 $Y2=3.33
r202 92 93 9.3 $w=1.7e-07 $l=1.7e-07 $layer=mcon $count=1 $X=0.72 $Y=3.33
+ $X2=0.72 $Y2=3.33
r203 90 127 3.60924 $w=1.7e-07 $l=2.38e-07 $layer=LI1_cond $X=0.475 $Y=3.33
+ $X2=0.237 $Y2=3.33
r204 90 92 15.984 $w=1.68e-07 $l=2.45e-07 $layer=LI1_cond $X=0.475 $Y=3.33
+ $X2=0.72 $Y2=3.33
r205 89 130 8.61065 $w=1.7e-07 $l=1.65e-07 $layer=LI1_cond $X=1.065 $Y=3.33
+ $X2=1.23 $Y2=3.33
r206 89 92 22.508 $w=1.68e-07 $l=3.45e-07 $layer=LI1_cond $X=1.065 $Y=3.33
+ $X2=0.72 $Y2=3.33
r207 87 134 0.267585 $w=4.9e-07 $l=9.6e-07 $layer=MET1_cond $X=5.04 $Y=3.33
+ $X2=6 $Y2=3.33
r208 87 103 0.133793 $w=4.9e-07 $l=4.8e-07 $layer=MET1_cond $X=5.04 $Y=3.33
+ $X2=4.56 $Y2=3.33
r209 87 106 9.3 $w=1.7e-07 $l=1.7e-07 $layer=mcon $count=1 $X=5.04 $Y=3.33
+ $X2=5.04 $Y2=3.33
r210 85 110 10.4385 $w=1.68e-07 $l=1.6e-07 $layer=LI1_cond $X=6.64 $Y=3.33
+ $X2=6.48 $Y2=3.33
r211 85 86 8.61065 $w=1.7e-07 $l=1.65e-07 $layer=LI1_cond $X=6.64 $Y=3.33
+ $X2=6.805 $Y2=3.33
r212 84 114 30.6631 $w=1.68e-07 $l=4.7e-07 $layer=LI1_cond $X=6.97 $Y=3.33
+ $X2=7.44 $Y2=3.33
r213 84 86 8.61065 $w=1.7e-07 $l=1.65e-07 $layer=LI1_cond $X=6.97 $Y=3.33
+ $X2=6.805 $Y2=3.33
r214 82 102 0.97861 $w=1.68e-07 $l=1.5e-08 $layer=LI1_cond $X=4.575 $Y=3.33
+ $X2=4.56 $Y2=3.33
r215 82 83 8.61065 $w=1.7e-07 $l=1.65e-07 $layer=LI1_cond $X=4.575 $Y=3.33
+ $X2=4.74 $Y2=3.33
r216 81 106 8.80749 $w=1.68e-07 $l=1.35e-07 $layer=LI1_cond $X=4.905 $Y=3.33
+ $X2=5.04 $Y2=3.33
r217 81 83 8.61065 $w=1.7e-07 $l=1.65e-07 $layer=LI1_cond $X=4.905 $Y=3.33
+ $X2=4.74 $Y2=3.33
r218 79 99 9.45989 $w=1.68e-07 $l=1.45e-07 $layer=LI1_cond $X=3.745 $Y=3.33
+ $X2=3.6 $Y2=3.33
r219 79 80 8.04615 $w=1.7e-07 $l=1.5e-07 $layer=LI1_cond $X=3.745 $Y=3.33
+ $X2=3.895 $Y2=3.33
r220 78 102 33.5989 $w=1.68e-07 $l=5.15e-07 $layer=LI1_cond $X=4.045 $Y=3.33
+ $X2=4.56 $Y2=3.33
r221 78 80 8.04615 $w=1.7e-07 $l=1.5e-07 $layer=LI1_cond $X=4.045 $Y=3.33
+ $X2=3.895 $Y2=3.33
r222 74 77 26.1919 $w=3.28e-07 $l=7.5e-07 $layer=LI1_cond $X=9.725 $Y=2.2
+ $X2=9.725 $Y2=2.95
r223 72 142 3.17707 $w=3.3e-07 $l=1.30767e-07 $layer=LI1_cond $X=9.725 $Y=3.245
+ $X2=9.82 $Y2=3.33
r224 72 77 10.3021 $w=3.28e-07 $l=2.95e-07 $layer=LI1_cond $X=9.725 $Y=3.245
+ $X2=9.725 $Y2=2.95
r225 68 71 26.5411 $w=3.28e-07 $l=7.6e-07 $layer=LI1_cond $X=8.865 $Y=2.21
+ $X2=8.865 $Y2=2.97
r226 66 139 0.89609 $w=3.3e-07 $l=8.5e-08 $layer=LI1_cond $X=8.865 $Y=3.245
+ $X2=8.865 $Y2=3.33
r227 66 71 9.60369 $w=3.28e-07 $l=2.75e-07 $layer=LI1_cond $X=8.865 $Y=3.245
+ $X2=8.865 $Y2=2.97
r228 62 65 13.5675 $w=6.68e-07 $l=7.6e-07 $layer=LI1_cond $X=7.835 $Y=2.21
+ $X2=7.835 $Y2=2.97
r229 60 136 2.76849 $w=6.7e-07 $l=8.5e-08 $layer=LI1_cond $X=7.835 $Y=3.245
+ $X2=7.835 $Y2=3.33
r230 60 65 4.90928 $w=6.68e-07 $l=2.75e-07 $layer=LI1_cond $X=7.835 $Y=3.245
+ $X2=7.835 $Y2=2.97
r231 56 59 26.5411 $w=3.28e-07 $l=7.6e-07 $layer=LI1_cond $X=6.805 $Y=2.21
+ $X2=6.805 $Y2=2.97
r232 54 86 0.89609 $w=3.3e-07 $l=8.5e-08 $layer=LI1_cond $X=6.805 $Y=3.245
+ $X2=6.805 $Y2=3.33
r233 54 59 9.60369 $w=3.28e-07 $l=2.75e-07 $layer=LI1_cond $X=6.805 $Y=3.245
+ $X2=6.805 $Y2=2.97