* File: sky130_fd_sc_lp__sdfbbn_1.pex.spice
* Created: Wed Sep  2 10:33:42 2020
* Program "Calibre xRC"
* Version "v2018.4_34.26"
* Nominal Temperature: 27C
* Circuit Temperature: 27C
* 
.subckt PM_SKY130_FD_SC_LP__SDFBBN_1%SCD 2 5 9 11 12 15 16
c32 5 0 1.17915e-19 $X=0.495 $Y=2.69
r33 15 17 45.456 $w=3.9e-07 $l=1.65e-07 $layer=POLY_cond $X=0.415 $Y=1.38
+ $X2=0.415 $Y2=1.215
r34 15 16 72.64 $w=1.7e-07 $l=3.4e-07 $layer=licon1_POLY $count=2 $X=0.385
+ $Y=1.38 $X2=0.385 $Y2=1.38
r35 12 16 2.58853 $w=6.68e-07 $l=1.45e-07 $layer=LI1_cond $X=0.24 $Y=1.55
+ $X2=0.385 $Y2=1.55
r36 9 17 210.234 $w=1.5e-07 $l=4.1e-07 $layer=POLY_cond $X=0.535 $Y=0.805
+ $X2=0.535 $Y2=1.215
r37 5 11 412.777 $w=1.5e-07 $l=8.05e-07 $layer=POLY_cond $X=0.495 $Y=2.69
+ $X2=0.495 $Y2=1.885
r38 2 11 44.2525 $w=3.9e-07 $l=1.95e-07 $layer=POLY_cond $X=0.415 $Y=1.69
+ $X2=0.415 $Y2=1.885
r39 1 15 4.27811 $w=3.9e-07 $l=3e-08 $layer=POLY_cond $X=0.415 $Y=1.41 $X2=0.415
+ $Y2=1.38
r40 1 2 39.929 $w=3.9e-07 $l=2.8e-07 $layer=POLY_cond $X=0.415 $Y=1.41 $X2=0.415
+ $Y2=1.69
.ends

.subckt PM_SKY130_FD_SC_LP__SDFBBN_1%D 3 7 10 15 16 17 22
c49 15 0 1.41106e-19 $X=1.68 $Y=0.925
r50 22 24 45.6753 $w=4e-07 $l=1.65e-07 $layer=POLY_cond $X=1.62 $Y=1.315
+ $X2=1.62 $Y2=1.15
r51 16 17 12.9213 $w=3.28e-07 $l=3.7e-07 $layer=LI1_cond $X=1.655 $Y=1.295
+ $X2=1.655 $Y2=1.665
r52 16 22 72.64 $w=1.7e-07 $l=3.4e-07 $layer=licon1_POLY $count=2 $X=1.655
+ $Y=1.315 $X2=1.655 $Y2=1.315
r53 15 16 12.9213 $w=3.28e-07 $l=3.7e-07 $layer=LI1_cond $X=1.655 $Y=0.925
+ $X2=1.655 $Y2=1.295
r54 10 11 171.777 $w=1.5e-07 $l=3.35e-07 $layer=POLY_cond $X=1.62 $Y=1.86
+ $X2=1.285 $Y2=1.86
r55 9 22 4.86635 $w=4e-07 $l=3.5e-08 $layer=POLY_cond $X=1.62 $Y=1.35 $X2=1.62
+ $Y2=1.315
r56 9 10 60.4817 $w=4e-07 $l=4.35e-07 $layer=POLY_cond $X=1.62 $Y=1.35 $X2=1.62
+ $Y2=1.785
r57 7 24 176.904 $w=1.5e-07 $l=3.45e-07 $layer=POLY_cond $X=1.495 $Y=0.805
+ $X2=1.495 $Y2=1.15
r58 1 11 2.83073 $w=1.5e-07 $l=7.5e-08 $layer=POLY_cond $X=1.285 $Y=1.935
+ $X2=1.285 $Y2=1.86
r59 1 3 387.138 $w=1.5e-07 $l=7.55e-07 $layer=POLY_cond $X=1.285 $Y=1.935
+ $X2=1.285 $Y2=2.69
.ends

.subckt PM_SKY130_FD_SC_LP__SDFBBN_1%A_328_429# 1 2 7 9 10 11 14 17 19 20 23 26
+ 29 32 35
c73 11 0 1.41106e-19 $X=1.79 $Y=2.22
r74 32 34 10.7321 $w=3.28e-07 $l=2.3e-07 $layer=LI1_cond $X=3.26 $Y=0.805
+ $X2=3.26 $Y2=1.035
r75 27 35 8.61065 $w=1.7e-07 $l=1.65e-07 $layer=LI1_cond $X=3.18 $Y=1.505
+ $X2=3.18 $Y2=1.34
r76 27 29 45.3422 $w=1.68e-07 $l=6.95e-07 $layer=LI1_cond $X=3.18 $Y=1.505
+ $X2=3.18 $Y2=2.2
r77 26 35 8.61065 $w=1.7e-07 $l=1.65e-07 $layer=LI1_cond $X=3.18 $Y=1.175
+ $X2=3.18 $Y2=1.34
r78 26 34 9.13369 $w=1.68e-07 $l=1.4e-07 $layer=LI1_cond $X=3.18 $Y=1.175
+ $X2=3.18 $Y2=1.035
r79 22 23 145.28 $w=1.7e-07 $l=1.7e-07 $layer=licon1_POLY $count=1 $X=2.515
+ $Y=1.34 $X2=2.515 $Y2=1.34
r80 20 35 0.89609 $w=3.3e-07 $l=8.5e-08 $layer=LI1_cond $X=3.095 $Y=1.34
+ $X2=3.18 $Y2=1.34
r81 20 22 20.2551 $w=3.28e-07 $l=5.8e-07 $layer=LI1_cond $X=3.095 $Y=1.34
+ $X2=2.515 $Y2=1.34
r82 18 23 53.3327 $w=3.3e-07 $l=3.05e-07 $layer=POLY_cond $X=2.21 $Y=1.34
+ $X2=2.515 $Y2=1.34
r83 18 19 5.03009 $w=3.3e-07 $l=7.5e-08 $layer=POLY_cond $X=2.21 $Y=1.34
+ $X2=2.135 $Y2=1.34
r84 16 19 37.0704 $w=1.5e-07 $l=1.65e-07 $layer=POLY_cond $X=2.135 $Y=1.505
+ $X2=2.135 $Y2=1.34
r85 16 17 328.17 $w=1.5e-07 $l=6.4e-07 $layer=POLY_cond $X=2.135 $Y=1.505
+ $X2=2.135 $Y2=2.145
r86 12 19 37.0704 $w=1.5e-07 $l=1.65e-07 $layer=POLY_cond $X=2.135 $Y=1.175
+ $X2=2.135 $Y2=1.34
r87 12 14 189.723 $w=1.5e-07 $l=3.7e-07 $layer=POLY_cond $X=2.135 $Y=1.175
+ $X2=2.135 $Y2=0.805
r88 10 17 26.9307 $w=1.5e-07 $l=1.06066e-07 $layer=POLY_cond $X=2.06 $Y=2.22
+ $X2=2.135 $Y2=2.145
r89 10 11 138.447 $w=1.5e-07 $l=2.7e-07 $layer=POLY_cond $X=2.06 $Y=2.22
+ $X2=1.79 $Y2=2.22
r90 7 11 26.9307 $w=1.5e-07 $l=1.06066e-07 $layer=POLY_cond $X=1.715 $Y=2.295
+ $X2=1.79 $Y2=2.22
r91 7 9 126.927 $w=1.5e-07 $l=3.95e-07 $layer=POLY_cond $X=1.715 $Y=2.295
+ $X2=1.715 $Y2=2.69
r92 2 29 300 $w=1.7e-07 $l=2.03286e-07 $layer=licon1_PDIFF $count=2 $X=3.04
+ $Y=2.055 $X2=3.18 $Y2=2.2
r93 1 32 182 $w=1.7e-07 $l=3.07571e-07 $layer=licon1_NDIFF $count=1 $X=3.04
+ $Y=0.595 $X2=3.26 $Y2=0.805
.ends

.subckt PM_SKY130_FD_SC_LP__SDFBBN_1%SCE 4 7 9 10 13 15 17 20 21
r65 20 23 46.2115 $w=3.3e-07 $l=1.65e-07 $layer=POLY_cond $X=1.015 $Y=1.38
+ $X2=1.015 $Y2=1.545
r66 20 22 46.2115 $w=3.3e-07 $l=1.65e-07 $layer=POLY_cond $X=1.015 $Y=1.38
+ $X2=1.015 $Y2=1.215
r67 20 21 145.28 $w=1.7e-07 $l=1.7e-07 $layer=licon1_POLY $count=1 $X=1.015
+ $Y=1.38 $X2=1.015 $Y2=1.38
r68 17 21 7.41049 $w=4.58e-07 $l=2.85e-07 $layer=LI1_cond $X=1.08 $Y=1.665
+ $X2=1.08 $Y2=1.38
r69 13 15 805.043 $w=1.5e-07 $l=1.57e-06 $layer=POLY_cond $X=2.965 $Y=0.805
+ $X2=2.965 $Y2=2.375
r70 11 13 282.021 $w=1.5e-07 $l=5.5e-07 $layer=POLY_cond $X=2.965 $Y=0.255
+ $X2=2.965 $Y2=0.805
r71 9 11 26.9307 $w=1.5e-07 $l=1.06066e-07 $layer=POLY_cond $X=2.89 $Y=0.18
+ $X2=2.965 $Y2=0.255
r72 9 10 969.128 $w=1.5e-07 $l=1.89e-06 $layer=POLY_cond $X=2.89 $Y=0.18 $X2=1
+ $Y2=0.18
r73 7 23 587.117 $w=1.5e-07 $l=1.145e-06 $layer=POLY_cond $X=0.925 $Y=2.69
+ $X2=0.925 $Y2=1.545
r74 4 22 210.234 $w=1.5e-07 $l=4.1e-07 $layer=POLY_cond $X=0.925 $Y=0.805
+ $X2=0.925 $Y2=1.215
r75 1 10 26.9307 $w=1.5e-07 $l=1.06066e-07 $layer=POLY_cond $X=0.925 $Y=0.255
+ $X2=1 $Y2=0.18
r76 1 4 282.021 $w=1.5e-07 $l=5.5e-07 $layer=POLY_cond $X=0.925 $Y=0.255
+ $X2=0.925 $Y2=0.805
.ends

.subckt PM_SKY130_FD_SC_LP__SDFBBN_1%CLK_N 3 6 7 9 12 13 16 18 21 22
r49 21 22 72.64 $w=1.7e-07 $l=3.4e-07 $layer=licon1_POLY $count=2 $X=4.025
+ $Y=1.035 $X2=4.025 $Y2=1.035
r50 18 22 8.94433 $w=3.33e-07 $l=2.6e-07 $layer=LI1_cond $X=4.027 $Y=1.295
+ $X2=4.027 $Y2=1.035
r51 14 16 128.191 $w=1.5e-07 $l=2.5e-07 $layer=POLY_cond $X=4.115 $Y=1.855
+ $X2=4.365 $Y2=1.855
r52 12 21 59.4528 $w=3.3e-07 $l=3.4e-07 $layer=POLY_cond $X=4.025 $Y=1.375
+ $X2=4.025 $Y2=1.035
r53 12 13 46.2115 $w=3.3e-07 $l=1.65e-07 $layer=POLY_cond $X=4.025 $Y=1.375
+ $X2=4.025 $Y2=1.54
r54 11 21 46.2115 $w=3.3e-07 $l=1.65e-07 $layer=POLY_cond $X=4.025 $Y=0.87
+ $X2=4.025 $Y2=1.035
r55 7 16 2.83073 $w=1.5e-07 $l=7.5e-08 $layer=POLY_cond $X=4.365 $Y=1.93
+ $X2=4.365 $Y2=1.855
r56 7 9 142.993 $w=1.5e-07 $l=4.45e-07 $layer=POLY_cond $X=4.365 $Y=1.93
+ $X2=4.365 $Y2=2.375
r57 6 14 2.83073 $w=1.5e-07 $l=7.5e-08 $layer=POLY_cond $X=4.115 $Y=1.78
+ $X2=4.115 $Y2=1.855
r58 6 13 123.064 $w=1.5e-07 $l=2.4e-07 $layer=POLY_cond $X=4.115 $Y=1.78
+ $X2=4.115 $Y2=1.54
r59 3 11 210.234 $w=1.5e-07 $l=4.1e-07 $layer=POLY_cond $X=4.115 $Y=0.46
+ $X2=4.115 $Y2=0.87
.ends

.subckt PM_SKY130_FD_SC_LP__SDFBBN_1%A_838_50# 1 2 10 14 15 16 17 18 21 26 29 30
+ 32 33 34 38 43 46 50 51 53 54 56 57 58 60 61 62 63 64 65 66 69 70 73 77 79 80
+ 84 93
c249 84 0 2.25888e-20 $X=11.365 $Y=1.51
c250 70 0 3.07529e-20 $X=12.265 $Y=1.865
c251 50 0 4.10494e-20 $X=7.21 $Y=1.215
r252 84 93 46.2115 $w=3.3e-07 $l=1.65e-07 $layer=POLY_cond $X=11.365 $Y=1.51
+ $X2=11.365 $Y2=1.345
r253 83 84 145.28 $w=1.7e-07 $l=1.7e-07 $layer=licon1_POLY $count=1 $X=11.365
+ $Y=1.51 $X2=11.365 $Y2=1.51
r254 77 79 8.58894 $w=3.83e-07 $l=1.65e-07 $layer=LI1_cond $X=4.567 $Y=1.035
+ $X2=4.567 $Y2=0.87
r255 77 78 72.64 $w=1.7e-07 $l=3.4e-07 $layer=licon1_POLY $count=2 $X=4.595
+ $Y=1.035 $X2=4.595 $Y2=1.035
r256 75 79 11.7433 $w=1.68e-07 $l=1.8e-07 $layer=LI1_cond $X=4.46 $Y=0.69
+ $X2=4.46 $Y2=0.87
r257 73 75 10.0876 $w=3.78e-07 $l=2.15e-07 $layer=LI1_cond $X=4.355 $Y=0.475
+ $X2=4.355 $Y2=0.69
r258 69 70 72.64 $w=1.7e-07 $l=3.4e-07 $layer=licon1_POLY $count=2 $X=12.265
+ $Y=1.865 $X2=12.265 $Y2=1.865
r259 67 69 35.9702 $w=3.28e-07 $l=1.03e-06 $layer=LI1_cond $X=12.265 $Y=2.895
+ $X2=12.265 $Y2=1.865
r260 65 67 7.76618 $w=1.7e-07 $l=2.03101e-07 $layer=LI1_cond $X=12.1 $Y=2.98
+ $X2=12.265 $Y2=2.895
r261 65 66 52.8449 $w=1.68e-07 $l=8.1e-07 $layer=LI1_cond $X=12.1 $Y=2.98
+ $X2=11.29 $Y2=2.98
r262 64 66 6.81649 $w=1.7e-07 $l=1.20208e-07 $layer=LI1_cond $X=11.205 $Y=2.895
+ $X2=11.29 $Y2=2.98
r263 63 83 8.97325 $w=3.04e-07 $l=2.16852e-07 $layer=LI1_cond $X=11.205 $Y=1.675
+ $X2=11.325 $Y2=1.51
r264 63 64 79.5936 $w=1.68e-07 $l=1.22e-06 $layer=LI1_cond $X=11.205 $Y=1.675
+ $X2=11.205 $Y2=2.895
r265 61 83 13.6447 $w=3.04e-07 $l=4.30465e-07 $layer=LI1_cond $X=11.12 $Y=1.17
+ $X2=11.325 $Y2=1.51
r266 61 62 44.6898 $w=1.68e-07 $l=6.85e-07 $layer=LI1_cond $X=11.12 $Y=1.17
+ $X2=10.435 $Y2=1.17
r267 60 62 6.81649 $w=1.7e-07 $l=1.20208e-07 $layer=LI1_cond $X=10.35 $Y=1.085
+ $X2=10.435 $Y2=1.17
r268 59 60 42.4064 $w=1.68e-07 $l=6.5e-07 $layer=LI1_cond $X=10.35 $Y=0.435
+ $X2=10.35 $Y2=1.085
r269 57 59 6.81649 $w=1.7e-07 $l=1.20208e-07 $layer=LI1_cond $X=10.265 $Y=0.35
+ $X2=10.35 $Y2=0.435
r270 57 58 111.561 $w=1.68e-07 $l=1.71e-06 $layer=LI1_cond $X=10.265 $Y=0.35
+ $X2=8.555 $Y2=0.35
r271 55 58 6.81649 $w=1.7e-07 $l=1.20208e-07 $layer=LI1_cond $X=8.47 $Y=0.435
+ $X2=8.555 $Y2=0.35
r272 55 56 17.615 $w=1.68e-07 $l=2.7e-07 $layer=LI1_cond $X=8.47 $Y=0.435
+ $X2=8.47 $Y2=0.705
r273 53 56 6.81649 $w=1.7e-07 $l=1.20208e-07 $layer=LI1_cond $X=8.385 $Y=0.79
+ $X2=8.47 $Y2=0.705
r274 53 54 70.1337 $w=1.68e-07 $l=1.075e-06 $layer=LI1_cond $X=8.385 $Y=0.79
+ $X2=7.31 $Y2=0.79
r275 51 90 46.2115 $w=3.3e-07 $l=1.65e-07 $layer=POLY_cond $X=7.21 $Y=1.215
+ $X2=7.21 $Y2=1.05
r276 50 51 145.28 $w=1.7e-07 $l=1.7e-07 $layer=licon1_POLY $count=1 $X=7.21
+ $Y=1.215 $X2=7.21 $Y2=1.215
r277 48 54 7.24806 $w=1.7e-07 $l=1.70276e-07 $layer=LI1_cond $X=7.177 $Y=0.875
+ $X2=7.31 $Y2=0.79
r278 48 50 14.7861 $w=2.63e-07 $l=3.4e-07 $layer=LI1_cond $X=7.177 $Y=0.875
+ $X2=7.177 $Y2=1.215
r279 46 80 28.7024 $w=2.63e-07 $l=6.6e-07 $layer=LI1_cond $X=4.627 $Y=2.2
+ $X2=4.627 $Y2=1.54
r280 43 80 6.8764 $w=3.83e-07 $l=1.92e-07 $layer=LI1_cond $X=4.567 $Y=1.348
+ $X2=4.567 $Y2=1.54
r281 42 77 0.808207 $w=3.83e-07 $l=2.7e-08 $layer=LI1_cond $X=4.567 $Y=1.062
+ $X2=4.567 $Y2=1.035
r282 42 43 8.56101 $w=3.83e-07 $l=2.86e-07 $layer=LI1_cond $X=4.567 $Y=1.062
+ $X2=4.567 $Y2=1.348
r283 38 70 76.939 $w=3.3e-07 $l=4.4e-07 $layer=POLY_cond $X=12.265 $Y=2.305
+ $X2=12.265 $Y2=1.865
r284 35 38 171.777 $w=1.5e-07 $l=3.35e-07 $layer=POLY_cond $X=11.93 $Y=2.38
+ $X2=12.265 $Y2=2.38
r285 33 78 53.9022 $w=6.7e-07 $l=6.75e-07 $layer=POLY_cond $X=5.27 $Y=1.205
+ $X2=4.595 $Y2=1.205
r286 33 34 11.9686 $w=6.7e-07 $l=7.5e-08 $layer=POLY_cond $X=5.27 $Y=1.205
+ $X2=5.345 $Y2=1.205
r287 30 35 2.83073 $w=1.5e-07 $l=7.5e-08 $layer=POLY_cond $X=11.93 $Y=2.455
+ $X2=11.93 $Y2=2.38
r288 30 32 91.58 $w=1.5e-07 $l=2.85e-07 $layer=POLY_cond $X=11.93 $Y=2.455
+ $X2=11.93 $Y2=2.74
r289 29 93 138.173 $w=1.5e-07 $l=4.3e-07 $layer=POLY_cond $X=11.42 $Y=0.915
+ $X2=11.42 $Y2=1.345
r290 26 90 164.085 $w=1.5e-07 $l=3.2e-07 $layer=POLY_cond $X=7.12 $Y=0.73
+ $X2=7.12 $Y2=1.05
r291 23 26 243.564 $w=1.5e-07 $l=4.75e-07 $layer=POLY_cond $X=7.12 $Y=0.255
+ $X2=7.12 $Y2=0.73
r292 19 21 489.691 $w=1.5e-07 $l=9.55e-07 $layer=POLY_cond $X=6.4 $Y=3.06
+ $X2=6.4 $Y2=2.105
r293 17 19 26.9307 $w=1.5e-07 $l=1.06066e-07 $layer=POLY_cond $X=6.325 $Y=3.135
+ $X2=6.4 $Y2=3.06
r294 17 18 464.053 $w=1.5e-07 $l=9.05e-07 $layer=POLY_cond $X=6.325 $Y=3.135
+ $X2=5.42 $Y2=3.135
r295 15 23 26.9307 $w=1.5e-07 $l=1.06066e-07 $layer=POLY_cond $X=7.045 $Y=0.18
+ $X2=7.12 $Y2=0.255
r296 15 16 833.245 $w=1.5e-07 $l=1.625e-06 $layer=POLY_cond $X=7.045 $Y=0.18
+ $X2=5.42 $Y2=0.18
r297 12 18 26.9307 $w=1.5e-07 $l=1.06066e-07 $layer=POLY_cond $X=5.345 $Y=3.06
+ $X2=5.42 $Y2=3.135
r298 12 14 464.053 $w=1.5e-07 $l=9.05e-07 $layer=POLY_cond $X=5.345 $Y=3.06
+ $X2=5.345 $Y2=2.155
r299 11 34 56.3093 $w=1.5e-07 $l=3.35e-07 $layer=POLY_cond $X=5.345 $Y=1.54
+ $X2=5.345 $Y2=1.205
r300 11 14 315.351 $w=1.5e-07 $l=6.15e-07 $layer=POLY_cond $X=5.345 $Y=1.54
+ $X2=5.345 $Y2=2.155
r301 8 34 56.3093 $w=1.5e-07 $l=3.35e-07 $layer=POLY_cond $X=5.345 $Y=0.87
+ $X2=5.345 $Y2=1.205
r302 8 10 169.213 $w=1.5e-07 $l=3.3e-07 $layer=POLY_cond $X=5.345 $Y=0.87
+ $X2=5.345 $Y2=0.54
r303 7 16 26.9307 $w=1.5e-07 $l=1.06066e-07 $layer=POLY_cond $X=5.345 $Y=0.255
+ $X2=5.42 $Y2=0.18
r304 7 10 146.138 $w=1.5e-07 $l=2.85e-07 $layer=POLY_cond $X=5.345 $Y=0.255
+ $X2=5.345 $Y2=0.54
r305 2 46 300 $w=1.7e-07 $l=2.03286e-07 $layer=licon1_PDIFF $count=2 $X=4.44
+ $Y=2.055 $X2=4.58 $Y2=2.2
r306 1 73 182 $w=1.7e-07 $l=2.86575e-07 $layer=licon1_NDIFF $count=1 $X=4.19
+ $Y=0.25 $X2=4.33 $Y2=0.475
.ends

.subckt PM_SKY130_FD_SC_LP__SDFBBN_1%A_1445_324# 1 2 7 9 11 14 18 22 26 27 29 30
+ 34 36 39 40 43 46 47 49
c140 34 0 1.25205e-19 $X=9.77 $Y=1.435
c141 27 0 1.21132e-19 $X=7.94 $Y=1.57
r142 43 44 20.1468 $w=2.18e-07 $l=3.6e-07 $layer=LI1_cond $X=9.41 $Y=1.095
+ $X2=9.77 $Y2=1.095
r143 40 54 45.2517 $w=3.8e-07 $l=1.65e-07 $layer=POLY_cond $X=10.8 $Y=1.56
+ $X2=10.8 $Y2=1.725
r144 40 53 45.2517 $w=3.8e-07 $l=1.65e-07 $layer=POLY_cond $X=10.8 $Y=1.56
+ $X2=10.8 $Y2=1.395
r145 39 40 145.28 $w=1.7e-07 $l=1.7e-07 $layer=licon1_POLY $count=1 $X=10.775
+ $Y=1.56 $X2=10.775 $Y2=1.56
r146 37 47 0.489042 $w=2.9e-07 $l=8.5e-08 $layer=LI1_cond $X=9.855 $Y=1.58
+ $X2=9.77 $Y2=1.58
r147 37 39 36.5603 $w=2.88e-07 $l=9.2e-07 $layer=LI1_cond $X=9.855 $Y=1.58
+ $X2=10.775 $Y2=1.58
r148 36 46 3.70735 $w=2.5e-07 $l=1.31031e-07 $layer=LI1_cond $X=9.77 $Y=1.915
+ $X2=9.69 $Y2=2.012
r149 35 47 7.85057 $w=1.7e-07 $l=1.45e-07 $layer=LI1_cond $X=9.77 $Y=1.725
+ $X2=9.77 $Y2=1.58
r150 35 36 12.3957 $w=1.68e-07 $l=1.9e-07 $layer=LI1_cond $X=9.77 $Y=1.725
+ $X2=9.77 $Y2=1.915
r151 34 47 7.85057 $w=1.7e-07 $l=1.45e-07 $layer=LI1_cond $X=9.77 $Y=1.435
+ $X2=9.77 $Y2=1.58
r152 33 44 2.19618 $w=1.7e-07 $l=1.3e-07 $layer=LI1_cond $X=9.77 $Y=1.225
+ $X2=9.77 $Y2=1.095
r153 33 34 13.7005 $w=1.68e-07 $l=2.1e-07 $layer=LI1_cond $X=9.77 $Y=1.225
+ $X2=9.77 $Y2=1.435
r154 29 46 2.76166 $w=1.7e-07 $l=1.71377e-07 $layer=LI1_cond $X=9.525 $Y=2.025
+ $X2=9.69 $Y2=2.012
r155 29 30 96.8824 $w=1.68e-07 $l=1.485e-06 $layer=LI1_cond $X=9.525 $Y=2.025
+ $X2=8.04 $Y2=2.025
r156 26 27 145.28 $w=1.7e-07 $l=1.7e-07 $layer=licon1_POLY $count=1 $X=7.94
+ $Y=1.57 $X2=7.94 $Y2=1.57
r157 24 30 6.87494 $w=1.7e-07 $l=1.36015e-07 $layer=LI1_cond $X=7.94 $Y=1.94
+ $X2=8.04 $Y2=2.025
r158 24 26 20.5182 $w=1.98e-07 $l=3.7e-07 $layer=LI1_cond $X=7.94 $Y=1.94
+ $X2=7.94 $Y2=1.57
r159 22 54 302.532 $w=1.5e-07 $l=5.9e-07 $layer=POLY_cond $X=10.915 $Y=2.315
+ $X2=10.915 $Y2=1.725
r160 18 53 246.128 $w=1.5e-07 $l=4.8e-07 $layer=POLY_cond $X=10.915 $Y=0.915
+ $X2=10.915 $Y2=1.395
r161 12 27 39.5234 $w=3.65e-07 $l=2.5e-07 $layer=POLY_cond $X=7.69 $Y=1.587
+ $X2=7.94 $Y2=1.587
r162 12 49 32.4387 $w=3.65e-07 $l=7.5e-08 $layer=POLY_cond $X=7.69 $Y=1.587
+ $X2=7.615 $Y2=1.587
r163 12 14 346.117 $w=1.5e-07 $l=6.75e-07 $layer=POLY_cond $X=7.69 $Y=1.405
+ $X2=7.69 $Y2=0.73
r164 11 49 123.064 $w=1.5e-07 $l=2.4e-07 $layer=POLY_cond $X=7.375 $Y=1.695
+ $X2=7.615 $Y2=1.695
r165 7 11 26.9307 $w=1.5e-07 $l=1.06066e-07 $layer=POLY_cond $X=7.3 $Y=1.77
+ $X2=7.375 $Y2=1.695
r166 7 9 107.647 $w=1.5e-07 $l=3.35e-07 $layer=POLY_cond $X=7.3 $Y=1.77 $X2=7.3
+ $Y2=2.105
r167 2 46 300 $w=1.7e-07 $l=9.42974e-07 $layer=licon1_PDIFF $count=2 $X=8.835
+ $Y=1.895 $X2=9.69 $Y2=2.08
r168 1 43 182 $w=1.7e-07 $l=9.31316e-07 $layer=licon1_NDIFF $count=1 $X=9.195
+ $Y=0.3 $X2=9.41 $Y2=1.13
.ends

.subckt PM_SKY130_FD_SC_LP__SDFBBN_1%SET_B 3 7 11 13 16 20 22 24 25 28 31 32 35
+ 40 42
c140 35 0 1.21132e-19 $X=8.67 $Y=1.245
c141 32 0 7.66706e-20 $X=13.2 $Y=1.295
c142 24 0 3.07529e-20 $X=13.055 $Y=1.295
c143 20 0 2.27899e-20 $X=13.485 $Y=2.05
r144 40 43 46.2115 $w=3.3e-07 $l=1.65e-07 $layer=POLY_cond $X=13.165 $Y=1.51
+ $X2=13.165 $Y2=1.675
r145 40 42 46.2115 $w=3.3e-07 $l=1.65e-07 $layer=POLY_cond $X=13.165 $Y=1.51
+ $X2=13.165 $Y2=1.345
r146 40 41 145.28 $w=1.7e-07 $l=1.7e-07 $layer=licon1_POLY $count=1 $X=13.165
+ $Y=1.51 $X2=13.165 $Y2=1.51
r147 35 38 46.2115 $w=3.3e-07 $l=1.65e-07 $layer=POLY_cond $X=8.67 $Y=1.245
+ $X2=8.67 $Y2=1.41
r148 35 37 46.2115 $w=3.3e-07 $l=1.65e-07 $layer=POLY_cond $X=8.67 $Y=1.245
+ $X2=8.67 $Y2=1.08
r149 35 36 145.28 $w=1.7e-07 $l=1.7e-07 $layer=licon1_POLY $count=1 $X=8.67
+ $Y=1.245 $X2=8.67 $Y2=1.245
r150 32 41 7.50834 $w=3.28e-07 $l=2.15e-07 $layer=LI1_cond $X=13.165 $Y=1.295
+ $X2=13.165 $Y2=1.51
r151 31 32 9.3 $w=1.7e-07 $l=1.7e-07 $layer=mcon $count=1 $X=13.2 $Y=1.295
+ $X2=13.2 $Y2=1.295
r152 28 36 7.33373 $w=3.28e-07 $l=2.1e-07 $layer=LI1_cond $X=8.88 $Y=1.245
+ $X2=8.67 $Y2=1.245
r153 27 28 9.3 $w=1.7e-07 $l=1.7e-07 $layer=mcon $count=1 $X=8.88 $Y=1.295
+ $X2=8.88 $Y2=1.295
r154 25 27 0.115467 $w=2.3e-07 $l=1.45e-07 $layer=MET1_cond $X=9.025 $Y=1.295
+ $X2=8.88 $Y2=1.295
r155 24 31 0.115467 $w=2.3e-07 $l=1.45e-07 $layer=MET1_cond $X=13.055 $Y=1.295
+ $X2=13.2 $Y2=1.295
r156 24 25 4.98761 $w=1.4e-07 $l=4.03e-06 $layer=MET1_cond $X=13.055 $Y=1.295
+ $X2=9.025 $Y2=1.295
r157 22 41 5.41299 $w=3.28e-07 $l=1.55e-07 $layer=LI1_cond $X=13.165 $Y=1.665
+ $X2=13.165 $Y2=1.51
r158 18 20 117.936 $w=1.5e-07 $l=2.3e-07 $layer=POLY_cond $X=13.255 $Y=2.05
+ $X2=13.485 $Y2=2.05
r159 14 20 2.83073 $w=1.5e-07 $l=7.5e-08 $layer=POLY_cond $X=13.485 $Y=2.125
+ $X2=13.485 $Y2=2.05
r160 14 16 282.021 $w=1.5e-07 $l=5.5e-07 $layer=POLY_cond $X=13.485 $Y=2.125
+ $X2=13.485 $Y2=2.675
r161 13 18 2.83073 $w=1.5e-07 $l=7.5e-08 $layer=POLY_cond $X=13.255 $Y=1.975
+ $X2=13.255 $Y2=2.05
r162 13 43 153.83 $w=1.5e-07 $l=3e-07 $layer=POLY_cond $X=13.255 $Y=1.975
+ $X2=13.255 $Y2=1.675
r163 11 42 138.173 $w=1.5e-07 $l=4.3e-07 $layer=POLY_cond $X=13.105 $Y=0.915
+ $X2=13.105 $Y2=1.345
r164 7 38 464.053 $w=1.5e-07 $l=9.05e-07 $layer=POLY_cond $X=8.76 $Y=2.315
+ $X2=8.76 $Y2=1.41
r165 3 37 235.872 $w=1.5e-07 $l=4.6e-07 $layer=POLY_cond $X=8.685 $Y=0.62
+ $X2=8.685 $Y2=1.08
.ends

.subckt PM_SKY130_FD_SC_LP__SDFBBN_1%A_1295_379# 1 2 9 11 12 15 19 21 24 25 26
+ 28 29 30 31 37
c129 12 0 1.25205e-19 $X=9.505 $Y=1.66
r130 37 39 4.0283 $w=3.18e-07 $l=1.05e-07 $layer=LI1_cond $X=9.34 $Y=1.57
+ $X2=9.34 $Y2=1.675
r131 37 38 145.28 $w=1.7e-07 $l=1.7e-07 $layer=licon1_POLY $count=1 $X=9.34
+ $Y=1.57 $X2=9.34 $Y2=1.57
r132 31 34 4.98819 $w=3.33e-07 $l=1.45e-07 $layer=LI1_cond $X=6.697 $Y=1.96
+ $X2=6.697 $Y2=2.105
r133 31 32 2.92411 $w=3.33e-07 $l=8.5e-08 $layer=LI1_cond $X=6.697 $Y=1.96
+ $X2=6.697 $Y2=1.875
r134 29 39 4.40442 $w=1.7e-07 $l=1.65e-07 $layer=LI1_cond $X=9.175 $Y=1.675
+ $X2=9.34 $Y2=1.675
r135 29 30 51.2139 $w=1.68e-07 $l=7.85e-07 $layer=LI1_cond $X=9.175 $Y=1.675
+ $X2=8.39 $Y2=1.675
r136 28 30 6.81649 $w=1.7e-07 $l=1.20208e-07 $layer=LI1_cond $X=8.305 $Y=1.59
+ $X2=8.39 $Y2=1.675
r137 27 28 23.8128 $w=1.68e-07 $l=3.65e-07 $layer=LI1_cond $X=8.305 $Y=1.225
+ $X2=8.305 $Y2=1.59
r138 25 27 6.81649 $w=1.7e-07 $l=1.20208e-07 $layer=LI1_cond $X=8.22 $Y=1.14
+ $X2=8.305 $Y2=1.225
r139 25 26 36.5348 $w=1.68e-07 $l=5.6e-07 $layer=LI1_cond $X=8.22 $Y=1.14
+ $X2=7.66 $Y2=1.14
r140 23 26 6.81649 $w=1.7e-07 $l=1.20208e-07 $layer=LI1_cond $X=7.575 $Y=1.225
+ $X2=7.66 $Y2=1.14
r141 23 24 42.4064 $w=1.68e-07 $l=6.5e-07 $layer=LI1_cond $X=7.575 $Y=1.225
+ $X2=7.575 $Y2=1.875
r142 22 31 4.71304 $w=1.7e-07 $l=1.68e-07 $layer=LI1_cond $X=6.865 $Y=1.96
+ $X2=6.697 $Y2=1.96
r143 21 24 6.81649 $w=1.7e-07 $l=1.20208e-07 $layer=LI1_cond $X=7.49 $Y=1.96
+ $X2=7.575 $Y2=1.875
r144 21 22 40.7754 $w=1.68e-07 $l=6.25e-07 $layer=LI1_cond $X=7.49 $Y=1.96
+ $X2=6.865 $Y2=1.96
r145 19 32 38.2402 $w=3.28e-07 $l=1.095e-06 $layer=LI1_cond $X=6.7 $Y=0.78
+ $X2=6.7 $Y2=1.875
r146 13 15 297.404 $w=1.5e-07 $l=5.8e-07 $layer=POLY_cond $X=9.905 $Y=1.735
+ $X2=9.905 $Y2=2.315
r147 12 38 38.7444 $w=2.79e-07 $l=2.05122e-07 $layer=POLY_cond $X=9.505 $Y=1.66
+ $X2=9.34 $Y2=1.57
r148 11 13 26.9307 $w=1.5e-07 $l=1.06066e-07 $layer=POLY_cond $X=9.83 $Y=1.66
+ $X2=9.905 $Y2=1.735
r149 11 12 166.649 $w=1.5e-07 $l=3.25e-07 $layer=POLY_cond $X=9.83 $Y=1.66
+ $X2=9.505 $Y2=1.66
r150 7 38 38.0072 $w=2.79e-07 $l=2.91033e-07 $layer=POLY_cond $X=9.12 $Y=1.405
+ $X2=9.34 $Y2=1.57
r151 7 9 402.521 $w=1.5e-07 $l=7.85e-07 $layer=POLY_cond $X=9.12 $Y=1.405
+ $X2=9.12 $Y2=0.62
r152 2 34 600 $w=1.7e-07 $l=3.07571e-07 $layer=licon1_PDIFF $count=1 $X=6.475
+ $Y=1.895 $X2=6.695 $Y2=2.105
r153 1 19 182 $w=1.7e-07 $l=2.87228e-07 $layer=licon1_NDIFF $count=1 $X=6.48
+ $Y=0.625 $X2=6.7 $Y2=0.78
.ends

.subckt PM_SKY130_FD_SC_LP__SDFBBN_1%A_995_66# 1 2 7 11 13 15 18 19 20 24 25 26
+ 28 29 31 32 36 40 44 48 51 52
c122 51 0 1.9702e-19 $X=5.125 $Y=1.51
c123 24 0 4.60649e-20 $X=11.42 $Y=2.56
c124 15 0 4.10494e-20 $X=6.91 $Y=1.77
r125 49 52 15.7375 $w=3.3e-07 $l=9e-08 $layer=POLY_cond $X=5.835 $Y=1.51
+ $X2=5.835 $Y2=1.42
r126 48 49 145.28 $w=1.7e-07 $l=1.7e-07 $layer=licon1_POLY $count=1 $X=5.835
+ $Y=1.51 $X2=5.835 $Y2=1.51
r127 46 51 1.39677 $w=3.3e-07 $l=1.7e-07 $layer=LI1_cond $X=5.295 $Y=1.51
+ $X2=5.125 $Y2=1.51
r128 46 48 18.8582 $w=3.28e-07 $l=5.4e-07 $layer=LI1_cond $X=5.295 $Y=1.51
+ $X2=5.835 $Y2=1.51
r129 42 51 5.10169 $w=3.35e-07 $l=1.65e-07 $layer=LI1_cond $X=5.125 $Y=1.675
+ $X2=5.125 $Y2=1.51
r130 42 44 10.3381 $w=3.38e-07 $l=3.05e-07 $layer=LI1_cond $X=5.125 $Y=1.675
+ $X2=5.125 $Y2=1.98
r131 38 51 5.10169 $w=3.35e-07 $l=1.67481e-07 $layer=LI1_cond $X=5.12 $Y=1.345
+ $X2=5.125 $Y2=1.51
r132 38 40 28.1126 $w=3.28e-07 $l=8.05e-07 $layer=LI1_cond $X=5.12 $Y=1.345
+ $X2=5.12 $Y2=0.54
r133 34 36 58.9681 $w=1.5e-07 $l=1.15e-07 $layer=POLY_cond $X=11.815 $Y=1.385
+ $X2=11.93 $Y2=1.385
r134 29 36 2.83073 $w=1.5e-07 $l=7.5e-08 $layer=POLY_cond $X=11.93 $Y=1.31
+ $X2=11.93 $Y2=1.385
r135 29 31 91.58 $w=1.5e-07 $l=2.85e-07 $layer=POLY_cond $X=11.93 $Y=1.31
+ $X2=11.93 $Y2=1.025
r136 27 34 2.83073 $w=1.5e-07 $l=7.5e-08 $layer=POLY_cond $X=11.815 $Y=1.46
+ $X2=11.815 $Y2=1.385
r137 27 28 233.309 $w=1.5e-07 $l=4.55e-07 $layer=POLY_cond $X=11.815 $Y=1.46
+ $X2=11.815 $Y2=1.915
r138 25 28 26.9307 $w=1.5e-07 $l=1.06066e-07 $layer=POLY_cond $X=11.74 $Y=1.99
+ $X2=11.815 $Y2=1.915
r139 25 26 125.628 $w=1.5e-07 $l=2.45e-07 $layer=POLY_cond $X=11.74 $Y=1.99
+ $X2=11.495 $Y2=1.99
r140 22 24 264.074 $w=1.5e-07 $l=5.15e-07 $layer=POLY_cond $X=11.42 $Y=3.075
+ $X2=11.42 $Y2=2.56
r141 21 26 26.9307 $w=1.5e-07 $l=1.06066e-07 $layer=POLY_cond $X=11.42 $Y=2.065
+ $X2=11.495 $Y2=1.99
r142 21 24 253.819 $w=1.5e-07 $l=4.95e-07 $layer=POLY_cond $X=11.42 $Y=2.065
+ $X2=11.42 $Y2=2.56
r143 19 22 26.9307 $w=1.5e-07 $l=1.06066e-07 $layer=POLY_cond $X=11.345 $Y=3.15
+ $X2=11.42 $Y2=3.075
r144 19 20 2235.66 $w=1.5e-07 $l=4.36e-06 $layer=POLY_cond $X=11.345 $Y=3.15
+ $X2=6.985 $Y2=3.15
r145 16 20 26.9307 $w=1.5e-07 $l=1.06066e-07 $layer=POLY_cond $X=6.91 $Y=3.075
+ $X2=6.985 $Y2=3.15
r146 16 18 497.383 $w=1.5e-07 $l=9.7e-07 $layer=POLY_cond $X=6.91 $Y=3.075
+ $X2=6.91 $Y2=2.105
r147 15 33 86.8103 $w=2.02e-07 $l=3.85681e-07 $layer=POLY_cond $X=6.91 $Y=1.77
+ $X2=6.835 $Y2=1.42
r148 15 18 171.777 $w=1.5e-07 $l=3.35e-07 $layer=POLY_cond $X=6.91 $Y=1.77
+ $X2=6.91 $Y2=2.105
r149 14 32 20.4101 $w=1.5e-07 $l=7.5e-08 $layer=POLY_cond $X=6.48 $Y=1.42
+ $X2=6.405 $Y2=1.42
r150 13 33 9.80621 $w=1.5e-07 $l=1.5e-07 $layer=POLY_cond $X=6.685 $Y=1.42
+ $X2=6.835 $Y2=1.42
r151 13 14 105.117 $w=1.5e-07 $l=2.05e-07 $layer=POLY_cond $X=6.685 $Y=1.42
+ $X2=6.48 $Y2=1.42
r152 9 32 5.30422 $w=1.5e-07 $l=7.5e-08 $layer=POLY_cond $X=6.405 $Y=1.345
+ $X2=6.405 $Y2=1.42
r153 9 11 261.511 $w=1.5e-07 $l=5.1e-07 $layer=POLY_cond $X=6.405 $Y=1.345
+ $X2=6.405 $Y2=0.835
r154 8 52 21.2229 $w=1.5e-07 $l=1.65e-07 $layer=POLY_cond $X=6 $Y=1.42 $X2=5.835
+ $Y2=1.42
r155 7 32 20.4101 $w=1.5e-07 $l=7.5e-08 $layer=POLY_cond $X=6.33 $Y=1.42
+ $X2=6.405 $Y2=1.42
r156 7 8 169.213 $w=1.5e-07 $l=3.3e-07 $layer=POLY_cond $X=6.33 $Y=1.42 $X2=6
+ $Y2=1.42
r157 2 44 600 $w=1.7e-07 $l=2.03286e-07 $layer=licon1_PDIFF $count=1 $X=4.99
+ $Y=1.835 $X2=5.13 $Y2=1.98
r158 1 40 182 $w=1.7e-07 $l=2.73038e-07 $layer=licon1_NDIFF $count=1 $X=4.975
+ $Y=0.33 $X2=5.12 $Y2=0.54
.ends

.subckt PM_SKY130_FD_SC_LP__SDFBBN_1%A_2449_137# 1 2 7 9 10 11 16 20 24 26 29 32
+ 36 37 38 39 40 43 48 51 55 58 59 62 63 65 66 70 74 76
c186 62 0 2.044e-19 $X=15.635 $Y=2.47
c187 48 0 1.44198e-19 $X=13.7 $Y=2.4
c188 29 0 8.21183e-20 $X=16.755 $Y=1.325
c189 24 0 1.28899e-19 $X=15.8 $Y=0.705
r190 76 77 30.474 $w=3.3e-07 $l=7.5e-08 $layer=POLY_cond $X=15.74 $Y=1.4
+ $X2=15.74 $Y2=1.325
r191 71 79 46.2115 $w=3.3e-07 $l=1.65e-07 $layer=POLY_cond $X=15.74 $Y=1.49
+ $X2=15.74 $Y2=1.655
r192 71 76 15.7375 $w=3.3e-07 $l=9e-08 $layer=POLY_cond $X=15.74 $Y=1.49
+ $X2=15.74 $Y2=1.4
r193 70 71 145.28 $w=1.7e-07 $l=1.7e-07 $layer=licon1_POLY $count=1 $X=15.74
+ $Y=1.49 $X2=15.74 $Y2=1.49
r194 67 70 3.66686 $w=3.28e-07 $l=1.05e-07 $layer=LI1_cond $X=15.635 $Y=1.49
+ $X2=15.74 $Y2=1.49
r195 64 65 9.02376 $w=2.48e-07 $l=1.7e-07 $layer=LI1_cond $X=14.062 $Y=1.085
+ $X2=14.062 $Y2=1.255
r196 61 67 4.62375 $w=1.7e-07 $l=1.65e-07 $layer=LI1_cond $X=15.635 $Y=1.655
+ $X2=15.635 $Y2=1.49
r197 61 62 53.1711 $w=1.68e-07 $l=8.15e-07 $layer=LI1_cond $X=15.635 $Y=1.655
+ $X2=15.635 $Y2=2.47
r198 60 66 5.16603 $w=1.7e-07 $l=8.5e-08 $layer=LI1_cond $X=14.22 $Y=2.555
+ $X2=14.135 $Y2=2.555
r199 59 62 6.81649 $w=1.7e-07 $l=1.20208e-07 $layer=LI1_cond $X=15.55 $Y=2.555
+ $X2=15.635 $Y2=2.47
r200 59 60 86.7701 $w=1.68e-07 $l=1.33e-06 $layer=LI1_cond $X=15.55 $Y=2.555
+ $X2=14.22 $Y2=2.555
r201 58 66 1.34256 $w=1.7e-07 $l=8.5e-08 $layer=LI1_cond $X=14.135 $Y=2.47
+ $X2=14.135 $Y2=2.555
r202 58 65 79.2674 $w=1.68e-07 $l=1.215e-06 $layer=LI1_cond $X=14.135 $Y=2.47
+ $X2=14.135 $Y2=1.255
r203 55 64 6.91466 $w=2.48e-07 $l=1.5e-07 $layer=LI1_cond $X=14.03 $Y=0.935
+ $X2=14.03 $Y2=1.085
r204 52 63 3.80956 $w=1.7e-07 $l=1.65e-07 $layer=LI1_cond $X=13.865 $Y=2.555
+ $X2=13.7 $Y2=2.555
r205 51 66 5.16603 $w=1.7e-07 $l=8.5e-08 $layer=LI1_cond $X=14.05 $Y=2.555
+ $X2=14.135 $Y2=2.555
r206 51 52 12.0695 $w=1.68e-07 $l=1.85e-07 $layer=LI1_cond $X=14.05 $Y=2.555
+ $X2=13.865 $Y2=2.555
r207 46 63 2.88756 $w=3.3e-07 $l=8.5e-08 $layer=LI1_cond $X=13.7 $Y=2.47
+ $X2=13.7 $Y2=2.555
r208 46 48 2.44458 $w=3.28e-07 $l=7e-08 $layer=LI1_cond $X=13.7 $Y=2.47 $X2=13.7
+ $Y2=2.4
r209 45 48 3.84148 $w=3.28e-07 $l=1.1e-07 $layer=LI1_cond $X=13.7 $Y=2.29
+ $X2=13.7 $Y2=2.4
r210 43 75 46.2115 $w=3.3e-07 $l=1.65e-07 $layer=POLY_cond $X=12.805 $Y=2.125
+ $X2=12.805 $Y2=2.29
r211 43 74 46.2115 $w=3.3e-07 $l=1.65e-07 $layer=POLY_cond $X=12.805 $Y=2.125
+ $X2=12.805 $Y2=1.96
r212 42 43 145.28 $w=1.7e-07 $l=1.7e-07 $layer=licon1_POLY $count=1 $X=12.805
+ $Y=2.125 $X2=12.805 $Y2=2.125
r213 40 45 6.81649 $w=3.3e-07 $l=2.33345e-07 $layer=LI1_cond $X=13.535 $Y=2.125
+ $X2=13.7 $Y2=2.29
r214 40 42 25.4934 $w=3.28e-07 $l=7.3e-07 $layer=LI1_cond $X=13.535 $Y=2.125
+ $X2=12.805 $Y2=2.125
r215 37 38 55.4135 $w=1.85e-07 $l=1.5e-07 $layer=POLY_cond $X=16.772 $Y=0.78
+ $X2=16.772 $Y2=0.93
r216 36 37 91.58 $w=1.5e-07 $l=2.85e-07 $layer=POLY_cond $X=16.79 $Y=0.495
+ $X2=16.79 $Y2=0.78
r217 30 39 20.4101 $w=1.5e-07 $l=7.5e-08 $layer=POLY_cond $X=16.755 $Y=1.475
+ $X2=16.755 $Y2=1.4
r218 30 32 348.681 $w=1.5e-07 $l=6.8e-07 $layer=POLY_cond $X=16.755 $Y=1.475
+ $X2=16.755 $Y2=2.155
r219 29 39 20.4101 $w=1.5e-07 $l=7.5e-08 $layer=POLY_cond $X=16.755 $Y=1.325
+ $X2=16.755 $Y2=1.4
r220 29 38 202.543 $w=1.5e-07 $l=3.95e-07 $layer=POLY_cond $X=16.755 $Y=1.325
+ $X2=16.755 $Y2=0.93
r221 27 76 21.2229 $w=1.5e-07 $l=1.65e-07 $layer=POLY_cond $X=15.905 $Y=1.4
+ $X2=15.74 $Y2=1.4
r222 26 39 5.30422 $w=1.5e-07 $l=7.5e-08 $layer=POLY_cond $X=16.68 $Y=1.4
+ $X2=16.755 $Y2=1.4
r223 26 27 397.394 $w=1.5e-07 $l=7.75e-07 $layer=POLY_cond $X=16.68 $Y=1.4
+ $X2=15.905 $Y2=1.4
r224 24 77 317.915 $w=1.5e-07 $l=6.2e-07 $layer=POLY_cond $X=15.8 $Y=0.705
+ $X2=15.8 $Y2=1.325
r225 20 79 415.34 $w=1.5e-07 $l=8.1e-07 $layer=POLY_cond $X=15.77 $Y=2.465
+ $X2=15.77 $Y2=1.655
r226 16 75 230.745 $w=1.5e-07 $l=4.5e-07 $layer=POLY_cond $X=12.745 $Y=2.74
+ $X2=12.745 $Y2=2.29
r227 12 74 256.383 $w=1.5e-07 $l=5e-07 $layer=POLY_cond $X=12.715 $Y=1.46
+ $X2=12.715 $Y2=1.96
r228 10 12 26.9307 $w=1.5e-07 $l=1.06066e-07 $layer=POLY_cond $X=12.64 $Y=1.385
+ $X2=12.715 $Y2=1.46
r229 10 11 125.628 $w=1.5e-07 $l=2.45e-07 $layer=POLY_cond $X=12.64 $Y=1.385
+ $X2=12.395 $Y2=1.385
r230 7 11 26.9307 $w=1.5e-07 $l=1.06066e-07 $layer=POLY_cond $X=12.32 $Y=1.31
+ $X2=12.395 $Y2=1.385
r231 7 9 91.58 $w=1.5e-07 $l=2.85e-07 $layer=POLY_cond $X=12.32 $Y=1.31
+ $X2=12.32 $Y2=1.025
r232 2 48 300 $w=1.7e-07 $l=2.03286e-07 $layer=licon1_PDIFF $count=2 $X=13.56
+ $Y=2.255 $X2=13.7 $Y2=2.4
r233 1 55 182 $w=1.7e-07 $l=4.36348e-07 $layer=licon1_NDIFF $count=1 $X=13.77
+ $Y=0.595 $X2=13.99 $Y2=0.935
.ends

.subckt PM_SKY130_FD_SC_LP__SDFBBN_1%A_2299_119# 1 2 9 13 17 22 27 28 31 32 33
c98 33 0 1.27581e-19 $X=13.705 $Y=1.435
c99 31 0 1.3679e-19 $X=13.705 $Y=1.6
c100 28 0 4.60649e-20 $X=11.675 $Y=2.12
c101 27 0 2.25888e-20 $X=11.635 $Y=2.415
c102 13 0 7.66706e-20 $X=13.915 $Y=2.675
r103 32 35 1.70922 $w=2.82e-07 $l=1e-08 $layer=POLY_cond $X=13.705 $Y=1.6
+ $X2=13.695 $Y2=1.6
r104 31 33 8.46218 $w=3.28e-07 $l=1.65e-07 $layer=LI1_cond $X=13.705 $Y=1.6
+ $X2=13.705 $Y2=1.435
r105 31 32 145.28 $w=1.7e-07 $l=1.7e-07 $layer=licon1_POLY $count=1 $X=13.705
+ $Y=1.6 $X2=13.705 $Y2=1.6
r106 27 28 12.3448 $w=4.08e-07 $l=2.95e-07 $layer=LI1_cond $X=11.675 $Y=2.415
+ $X2=11.675 $Y2=2.12
r107 25 28 62.3048 $w=1.68e-07 $l=9.55e-07 $layer=LI1_cond $X=11.795 $Y=1.165
+ $X2=11.795 $Y2=2.12
r108 24 25 11.0799 $w=4.08e-07 $l=2.5e-07 $layer=LI1_cond $X=11.675 $Y=0.915
+ $X2=11.675 $Y2=1.165
r109 22 24 1.26488 $w=4.08e-07 $l=4.5e-08 $layer=LI1_cond $X=11.675 $Y=0.87
+ $X2=11.675 $Y2=0.915
r110 19 33 28.3797 $w=1.68e-07 $l=4.35e-07 $layer=LI1_cond $X=13.625 $Y=1
+ $X2=13.625 $Y2=1.435
r111 18 24 5.92876 $w=1.7e-07 $l=2.05e-07 $layer=LI1_cond $X=11.88 $Y=0.915
+ $X2=11.675 $Y2=0.915
r112 17 19 6.81649 $w=1.7e-07 $l=1.20208e-07 $layer=LI1_cond $X=13.54 $Y=0.915
+ $X2=13.625 $Y2=1
r113 17 18 108.299 $w=1.68e-07 $l=1.66e-06 $layer=LI1_cond $X=13.54 $Y=0.915
+ $X2=11.88 $Y2=0.915
r114 11 32 35.8936 $w=2.82e-07 $l=2.80624e-07 $layer=POLY_cond $X=13.915
+ $Y=1.765 $X2=13.705 $Y2=1.6
r115 11 13 466.617 $w=1.5e-07 $l=9.1e-07 $layer=POLY_cond $X=13.915 $Y=1.765
+ $X2=13.915 $Y2=2.675
r116 7 35 17.5183 $w=1.5e-07 $l=1.65e-07 $layer=POLY_cond $X=13.695 $Y=1.435
+ $X2=13.695 $Y2=1.6