* File: sky130_fd_sc_lp__sdfbbn_2.pex.spice
* Created: Fri Aug 28 11:27:21 2020
* Program "Calibre xRC"
* Version "v2018.4_34.26"
* Nominal Temperature: 27C
* Circuit Temperature: 27C
* 
.subckt PM_SKY130_FD_SC_LP__SDFBBN_2%SCD 2 5 8 11 13 16 18 21 22
r37 21 23 45.6753 $w=4e-07 $l=1.65e-07 $layer=POLY_cond $X=0.42 $Y=1.38 $X2=0.42
+ $Y2=1.215
r38 21 22 72.64 $w=1.7e-07 $l=3.4e-07 $layer=licon1_POLY $count=2 $X=0.385
+ $Y=1.38 $X2=0.385 $Y2=1.38
r39 18 22 2.58853 $w=6.68e-07 $l=1.45e-07 $layer=LI1_cond $X=0.24 $Y=1.55
+ $X2=0.385 $Y2=1.55
r40 14 16 48.7128 $w=1.5e-07 $l=9.5e-08 $layer=POLY_cond $X=0.545 $Y=2.2
+ $X2=0.64 $Y2=2.2
r41 9 16 2.83073 $w=1.5e-07 $l=7.5e-08 $layer=POLY_cond $X=0.64 $Y=2.275
+ $X2=0.64 $Y2=2.2
r42 9 11 230.745 $w=1.5e-07 $l=4.5e-07 $layer=POLY_cond $X=0.64 $Y=2.275
+ $X2=0.64 $Y2=2.725
r43 8 14 2.83073 $w=1.5e-07 $l=7.5e-08 $layer=POLY_cond $X=0.545 $Y=2.125
+ $X2=0.545 $Y2=2.2
r44 8 13 123.064 $w=1.5e-07 $l=2.4e-07 $layer=POLY_cond $X=0.545 $Y=2.125
+ $X2=0.545 $Y2=1.885
r45 5 23 210.234 $w=1.5e-07 $l=4.1e-07 $layer=POLY_cond $X=0.545 $Y=0.805
+ $X2=0.545 $Y2=1.215
r46 2 13 50.5417 $w=4e-07 $l=2e-07 $layer=POLY_cond $X=0.42 $Y=1.685 $X2=0.42
+ $Y2=1.885
r47 1 21 4.86635 $w=4e-07 $l=3.5e-08 $layer=POLY_cond $X=0.42 $Y=1.415 $X2=0.42
+ $Y2=1.38
r48 1 2 37.5404 $w=4e-07 $l=2.7e-07 $layer=POLY_cond $X=0.42 $Y=1.415 $X2=0.42
+ $Y2=1.685
.ends

.subckt PM_SKY130_FD_SC_LP__SDFBBN_2%D 3 6 9 10 11 12 13 14 19
r47 13 14 14.4055 $w=2.98e-07 $l=3.75e-07 $layer=LI1_cond $X=1.645 $Y=1.29
+ $X2=1.645 $Y2=1.665
r48 13 19 72.64 $w=1.7e-07 $l=3.4e-07 $layer=licon1_POLY $count=2 $X=1.63
+ $Y=1.29 $X2=1.63 $Y2=1.29
r49 12 13 14.0214 $w=2.98e-07 $l=3.65e-07 $layer=LI1_cond $X=1.645 $Y=0.925
+ $X2=1.645 $Y2=1.29
r50 10 19 59.4528 $w=3.3e-07 $l=3.4e-07 $layer=POLY_cond $X=1.63 $Y=1.63
+ $X2=1.63 $Y2=1.29
r51 10 11 46.2115 $w=3.3e-07 $l=1.65e-07 $layer=POLY_cond $X=1.63 $Y=1.63
+ $X2=1.63 $Y2=1.795
r52 9 19 46.2115 $w=3.3e-07 $l=1.65e-07 $layer=POLY_cond $X=1.63 $Y=1.125
+ $X2=1.63 $Y2=1.29
r53 6 11 476.872 $w=1.5e-07 $l=9.3e-07 $layer=POLY_cond $X=1.54 $Y=2.725
+ $X2=1.54 $Y2=1.795
r54 3 9 102.827 $w=1.5e-07 $l=3.2e-07 $layer=POLY_cond $X=1.54 $Y=0.805 $X2=1.54
+ $Y2=1.125
.ends

.subckt PM_SKY130_FD_SC_LP__SDFBBN_2%A_407_93# 1 2 9 11 13 18 25 26 28 29 30 32
c69 13 0 8.92047e-20 $X=2.11 $Y=2.725
r70 30 35 2.89128 $w=5e-07 $l=1.7e-07 $layer=LI1_cond $X=3.195 $Y=1.515
+ $X2=3.195 $Y2=1.685
r71 30 32 16.9843 $w=4.98e-07 $l=7.1e-07 $layer=LI1_cond $X=3.195 $Y=1.515
+ $X2=3.195 $Y2=0.805
r72 28 35 4.25188 $w=3.4e-07 $l=2.5e-07 $layer=LI1_cond $X=2.945 $Y=1.685
+ $X2=3.195 $Y2=1.685
r73 28 29 12.3718 $w=3.38e-07 $l=3.65e-07 $layer=LI1_cond $X=2.945 $Y=1.685
+ $X2=2.58 $Y2=1.685
r74 25 26 72.64 $w=1.7e-07 $l=3.4e-07 $layer=licon1_POLY $count=2 $X=2.415
+ $Y=1.35 $X2=2.415 $Y2=1.35
r75 23 29 6.999 $w=3.4e-07 $l=2.25078e-07 $layer=LI1_cond $X=2.452 $Y=1.515
+ $X2=2.58 $Y2=1.685
r76 23 25 7.45698 $w=2.53e-07 $l=1.65e-07 $layer=LI1_cond $X=2.452 $Y=1.515
+ $X2=2.452 $Y2=1.35
r77 22 26 59.4528 $w=3.3e-07 $l=3.4e-07 $layer=POLY_cond $X=2.415 $Y=1.69
+ $X2=2.415 $Y2=1.35
r78 18 26 2.62292 $w=3.3e-07 $l=1.5e-08 $layer=POLY_cond $X=2.415 $Y=1.335
+ $X2=2.415 $Y2=1.35
r79 15 18 156.394 $w=1.5e-07 $l=3.05e-07 $layer=POLY_cond $X=2.11 $Y=1.26
+ $X2=2.415 $Y2=1.26
r80 11 22 73.505 $w=2e-07 $l=3.75786e-07 $layer=POLY_cond $X=2.11 $Y=2.005
+ $X2=2.415 $Y2=1.847
r81 11 13 369.191 $w=1.5e-07 $l=7.2e-07 $layer=POLY_cond $X=2.11 $Y=2.005
+ $X2=2.11 $Y2=2.725
r82 7 15 2.83073 $w=1.5e-07 $l=7.5e-08 $layer=POLY_cond $X=2.11 $Y=1.185
+ $X2=2.11 $Y2=1.26
r83 7 9 194.851 $w=1.5e-07 $l=3.8e-07 $layer=POLY_cond $X=2.11 $Y=1.185 $X2=2.11
+ $Y2=0.805
r84 2 35 600 $w=1.7e-07 $l=2.08567e-07 $layer=licon1_PDIFF $count=1 $X=3.14
+ $Y=1.535 $X2=3.28 $Y2=1.685
r85 1 32 182 $w=1.7e-07 $l=2.71109e-07 $layer=licon1_NDIFF $count=1 $X=2.97
+ $Y=0.595 $X2=3.11 $Y2=0.805
.ends

.subckt PM_SKY130_FD_SC_LP__SDFBBN_2%SCE 4 6 7 8 11 16 19 21 24 26 29
r74 29 31 46.6671 $w=3.65e-07 $l=1.65e-07 $layer=POLY_cond $X=1.042 $Y=1.38
+ $X2=1.042 $Y2=1.215
r75 29 30 72.64 $w=1.7e-07 $l=3.4e-07 $layer=licon1_POLY $count=2 $X=1.06
+ $Y=1.38 $X2=1.06 $Y2=1.38
r76 26 30 2.49927 $w=6.68e-07 $l=1.4e-07 $layer=LI1_cond $X=1.2 $Y=1.55 $X2=1.06
+ $Y2=1.55
r77 22 24 87.1702 $w=1.5e-07 $l=1.7e-07 $layer=POLY_cond $X=2.895 $Y=1.165
+ $X2=3.065 $Y2=1.165
r78 17 24 2.83073 $w=1.5e-07 $l=7.5e-08 $layer=POLY_cond $X=3.065 $Y=1.24
+ $X2=3.065 $Y2=1.165
r79 17 19 315.351 $w=1.5e-07 $l=6.15e-07 $layer=POLY_cond $X=3.065 $Y=1.24
+ $X2=3.065 $Y2=1.855
r80 14 22 2.83073 $w=1.5e-07 $l=7.5e-08 $layer=POLY_cond $X=2.895 $Y=1.09
+ $X2=2.895 $Y2=1.165
r81 14 16 146.138 $w=1.5e-07 $l=2.85e-07 $layer=POLY_cond $X=2.895 $Y=1.09
+ $X2=2.895 $Y2=0.805
r82 13 16 282.021 $w=1.5e-07 $l=5.5e-07 $layer=POLY_cond $X=2.895 $Y=0.255
+ $X2=2.895 $Y2=0.805
r83 11 21 430.723 $w=1.5e-07 $l=8.4e-07 $layer=POLY_cond $X=1.15 $Y=2.725
+ $X2=1.15 $Y2=1.885
r84 7 13 26.9307 $w=1.5e-07 $l=1.06066e-07 $layer=POLY_cond $X=2.82 $Y=0.18
+ $X2=2.895 $Y2=0.255
r85 7 8 928.106 $w=1.5e-07 $l=1.81e-06 $layer=POLY_cond $X=2.82 $Y=0.18 $X2=1.01
+ $Y2=0.18
r86 6 21 49.3547 $w=3.65e-07 $l=1.82e-07 $layer=POLY_cond $X=1.042 $Y=1.703
+ $X2=1.042 $Y2=1.885
r87 5 29 2.68759 $w=3.65e-07 $l=1.7e-08 $layer=POLY_cond $X=1.042 $Y=1.397
+ $X2=1.042 $Y2=1.38
r88 5 6 48.3767 $w=3.65e-07 $l=3.06e-07 $layer=POLY_cond $X=1.042 $Y=1.397
+ $X2=1.042 $Y2=1.703
r89 4 31 210.234 $w=1.5e-07 $l=4.1e-07 $layer=POLY_cond $X=0.935 $Y=0.805
+ $X2=0.935 $Y2=1.215
r90 1 8 26.9307 $w=1.5e-07 $l=1.06066e-07 $layer=POLY_cond $X=0.935 $Y=0.255
+ $X2=1.01 $Y2=0.18
r91 1 4 282.021 $w=1.5e-07 $l=5.5e-07 $layer=POLY_cond $X=0.935 $Y=0.255
+ $X2=0.935 $Y2=0.805
.ends

.subckt PM_SKY130_FD_SC_LP__SDFBBN_2%CLK_N 3 7 11 12 13 14 18
r34 13 14 13.6198 $w=3.28e-07 $l=3.9e-07 $layer=LI1_cond $X=4.035 $Y=1.275
+ $X2=4.035 $Y2=1.665
r35 13 18 72.64 $w=1.7e-07 $l=3.4e-07 $layer=licon1_POLY $count=2 $X=4.035
+ $Y=1.275 $X2=4.035 $Y2=1.275
r36 11 18 59.4528 $w=3.3e-07 $l=3.4e-07 $layer=POLY_cond $X=4.035 $Y=1.615
+ $X2=4.035 $Y2=1.275
r37 11 12 46.2115 $w=3.3e-07 $l=1.65e-07 $layer=POLY_cond $X=4.035 $Y=1.615
+ $X2=4.035 $Y2=1.78
r38 10 18 46.2115 $w=3.3e-07 $l=1.65e-07 $layer=POLY_cond $X=4.035 $Y=1.11
+ $X2=4.035 $Y2=1.275
r39 7 12 305.096 $w=1.5e-07 $l=5.95e-07 $layer=POLY_cond $X=4.125 $Y=2.375
+ $X2=4.125 $Y2=1.78
r40 3 10 217.926 $w=1.5e-07 $l=4.25e-07 $layer=POLY_cond $X=4.125 $Y=0.685
+ $X2=4.125 $Y2=1.11
.ends

.subckt PM_SKY130_FD_SC_LP__SDFBBN_2%A_840_95# 1 2 10 14 15 16 17 18 21 26 29 30
+ 32 33 34 38 40 42 46 47 49 50 52 53 54 56 57 58 60 61 62 65 66 73 77 88
c219 77 0 1.2181e-19 $X=10.955 $Y=1.51
c220 66 0 3.07529e-20 $X=11.855 $Y=1.865
c221 65 0 1.22987e-19 $X=11.855 $Y=1.865
c222 47 0 1.09444e-19 $X=6.855 $Y=1.38
c223 33 0 1.28128e-19 $X=5.235 $Y=1.34
r224 77 88 46.2115 $w=3.3e-07 $l=1.65e-07 $layer=POLY_cond $X=10.955 $Y=1.51
+ $X2=10.955 $Y2=1.345
r225 76 78 8.83531 $w=4.38e-07 $l=1.65e-07 $layer=LI1_cond $X=10.9 $Y=1.51
+ $X2=10.9 $Y2=1.675
r226 76 77 145.28 $w=1.7e-07 $l=1.7e-07 $layer=licon1_POLY $count=1 $X=10.955
+ $Y=1.51 $X2=10.955 $Y2=1.51
r227 73 76 8.64332 $w=4.38e-07 $l=3.3e-07 $layer=LI1_cond $X=10.9 $Y=1.18
+ $X2=10.9 $Y2=1.51
r228 71 72 72.64 $w=1.7e-07 $l=3.4e-07 $layer=licon1_POLY $count=2 $X=4.605
+ $Y=1.17 $X2=4.605 $Y2=1.17
r229 69 71 15.9919 $w=3.7e-07 $l=4.85e-07 $layer=LI1_cond $X=4.472 $Y=0.685
+ $X2=4.472 $Y2=1.17
r230 65 66 72.64 $w=1.7e-07 $l=3.4e-07 $layer=licon1_POLY $count=2 $X=11.855
+ $Y=1.865 $X2=11.855 $Y2=1.865
r231 63 65 35.9702 $w=3.28e-07 $l=1.03e-06 $layer=LI1_cond $X=11.855 $Y=2.895
+ $X2=11.855 $Y2=1.865
r232 61 63 7.76618 $w=1.7e-07 $l=2.03101e-07 $layer=LI1_cond $X=11.69 $Y=2.98
+ $X2=11.855 $Y2=2.895
r233 61 62 54.8021 $w=1.68e-07 $l=8.4e-07 $layer=LI1_cond $X=11.69 $Y=2.98
+ $X2=10.85 $Y2=2.98
r234 60 62 6.81649 $w=1.7e-07 $l=1.20208e-07 $layer=LI1_cond $X=10.765 $Y=2.895
+ $X2=10.85 $Y2=2.98
r235 60 78 79.5936 $w=1.68e-07 $l=1.22e-06 $layer=LI1_cond $X=10.765 $Y=2.895
+ $X2=10.765 $Y2=1.675
r236 57 73 6.36164 $w=1.7e-07 $l=2.2e-07 $layer=LI1_cond $X=10.68 $Y=1.18
+ $X2=10.9 $Y2=1.18
r237 57 58 42.7326 $w=1.68e-07 $l=6.55e-07 $layer=LI1_cond $X=10.68 $Y=1.18
+ $X2=10.025 $Y2=1.18
r238 56 58 6.81649 $w=1.7e-07 $l=1.20208e-07 $layer=LI1_cond $X=9.94 $Y=1.095
+ $X2=10.025 $Y2=1.18
r239 55 56 43.0588 $w=1.68e-07 $l=6.6e-07 $layer=LI1_cond $X=9.94 $Y=0.435
+ $X2=9.94 $Y2=1.095
r240 53 55 6.81649 $w=1.7e-07 $l=1.20208e-07 $layer=LI1_cond $X=9.855 $Y=0.35
+ $X2=9.94 $Y2=0.435
r241 53 54 111.561 $w=1.68e-07 $l=1.71e-06 $layer=LI1_cond $X=9.855 $Y=0.35
+ $X2=8.145 $Y2=0.35
r242 51 54 6.81649 $w=1.7e-07 $l=1.20208e-07 $layer=LI1_cond $X=8.06 $Y=0.435
+ $X2=8.145 $Y2=0.35
r243 51 52 25.7701 $w=1.68e-07 $l=3.95e-07 $layer=LI1_cond $X=8.06 $Y=0.435
+ $X2=8.06 $Y2=0.83
r244 49 52 6.81649 $w=1.7e-07 $l=1.20208e-07 $layer=LI1_cond $X=7.975 $Y=0.915
+ $X2=8.06 $Y2=0.83
r245 49 50 67.1979 $w=1.68e-07 $l=1.03e-06 $layer=LI1_cond $X=7.975 $Y=0.915
+ $X2=6.945 $Y2=0.915
r246 47 83 23.6063 $w=3.3e-07 $l=1.35e-07 $layer=POLY_cond $X=6.855 $Y=1.38
+ $X2=6.72 $Y2=1.38
r247 46 47 145.28 $w=1.7e-07 $l=1.7e-07 $layer=licon1_POLY $count=1 $X=6.855
+ $Y=1.38 $X2=6.855 $Y2=1.38
r248 44 50 6.81835 $w=1.7e-07 $l=1.23386e-07 $layer=LI1_cond $X=6.857 $Y=1
+ $X2=6.945 $Y2=0.915
r249 44 46 24.0831 $w=1.73e-07 $l=3.8e-07 $layer=LI1_cond $X=6.857 $Y=1
+ $X2=6.857 $Y2=1.38
r250 40 71 0.304073 $w=3.7e-07 $l=1.28452e-07 $layer=LI1_cond $X=4.597 $Y=1.177
+ $X2=4.472 $Y2=1.17
r251 40 42 34.1724 $w=3.43e-07 $l=1.023e-06 $layer=LI1_cond $X=4.597 $Y=1.177
+ $X2=4.597 $Y2=2.2
r252 38 66 76.939 $w=3.3e-07 $l=4.4e-07 $layer=POLY_cond $X=11.855 $Y=2.305
+ $X2=11.855 $Y2=1.865
r253 35 38 187.16 $w=1.5e-07 $l=3.65e-07 $layer=POLY_cond $X=11.49 $Y=2.38
+ $X2=11.855 $Y2=2.38
r254 33 72 50.3087 $w=6.7e-07 $l=6.3e-07 $layer=POLY_cond $X=5.235 $Y=1.34
+ $X2=4.605 $Y2=1.34
r255 33 34 11.9686 $w=6.7e-07 $l=7.5e-08 $layer=POLY_cond $X=5.235 $Y=1.34
+ $X2=5.31 $Y2=1.34
r256 30 35 2.83073 $w=1.5e-07 $l=7.5e-08 $layer=POLY_cond $X=11.49 $Y=2.455
+ $X2=11.49 $Y2=2.38
r257 30 32 91.58 $w=1.5e-07 $l=2.85e-07 $layer=POLY_cond $X=11.49 $Y=2.455
+ $X2=11.49 $Y2=2.74
r258 29 88 138.173 $w=1.5e-07 $l=4.3e-07 $layer=POLY_cond $X=11.015 $Y=0.915
+ $X2=11.015 $Y2=1.345
r259 24 83 21.2229 $w=1.5e-07 $l=1.65e-07 $layer=POLY_cond $X=6.72 $Y=1.215
+ $X2=6.72 $Y2=1.38
r260 24 26 164.085 $w=1.5e-07 $l=3.2e-07 $layer=POLY_cond $X=6.72 $Y=1.215
+ $X2=6.72 $Y2=0.895
r261 23 26 325.606 $w=1.5e-07 $l=6.35e-07 $layer=POLY_cond $X=6.72 $Y=0.26
+ $X2=6.72 $Y2=0.895
r262 19 21 274.33 $w=1.5e-07 $l=5.35e-07 $layer=POLY_cond $X=6.29 $Y=3.06
+ $X2=6.29 $Y2=2.525
r263 17 19 26.9307 $w=1.5e-07 $l=1.06066e-07 $layer=POLY_cond $X=6.215 $Y=3.135
+ $X2=6.29 $Y2=3.06
r264 17 18 425.596 $w=1.5e-07 $l=8.3e-07 $layer=POLY_cond $X=6.215 $Y=3.135
+ $X2=5.385 $Y2=3.135
r265 15 23 26.9307 $w=1.5e-07 $l=1.06066e-07 $layer=POLY_cond $X=6.645 $Y=0.185
+ $X2=6.72 $Y2=0.26
r266 15 16 646.085 $w=1.5e-07 $l=1.26e-06 $layer=POLY_cond $X=6.645 $Y=0.185
+ $X2=5.385 $Y2=0.185
r267 12 18 26.9307 $w=1.5e-07 $l=1.06066e-07 $layer=POLY_cond $X=5.31 $Y=3.06
+ $X2=5.385 $Y2=3.135
r268 12 14 202.543 $w=1.5e-07 $l=3.95e-07 $layer=POLY_cond $X=5.31 $Y=3.06
+ $X2=5.31 $Y2=2.665
r269 11 34 56.3093 $w=1.5e-07 $l=3.35e-07 $layer=POLY_cond $X=5.31 $Y=1.675
+ $X2=5.31 $Y2=1.34
r270 11 14 507.638 $w=1.5e-07 $l=9.9e-07 $layer=POLY_cond $X=5.31 $Y=1.675
+ $X2=5.31 $Y2=2.665
r271 8 34 56.3093 $w=1.5e-07 $l=3.35e-07 $layer=POLY_cond $X=5.31 $Y=1.005
+ $X2=5.31 $Y2=1.34
r272 8 10 235.872 $w=1.5e-07 $l=4.6e-07 $layer=POLY_cond $X=5.31 $Y=1.005
+ $X2=5.31 $Y2=0.545
r273 7 16 26.9307 $w=1.5e-07 $l=1.06066e-07 $layer=POLY_cond $X=5.31 $Y=0.26
+ $X2=5.385 $Y2=0.185
r274 7 10 146.138 $w=1.5e-07 $l=2.85e-07 $layer=POLY_cond $X=5.31 $Y=0.26
+ $X2=5.31 $Y2=0.545
r275 2 42 300 $w=1.7e-07 $l=3.75566e-07 $layer=licon1_PDIFF $count=2 $X=4.2
+ $Y=2.055 $X2=4.51 $Y2=2.2
r276 1 69 182 $w=1.7e-07 $l=2.71109e-07 $layer=licon1_NDIFF $count=1 $X=4.2
+ $Y=0.475 $X2=4.34 $Y2=0.685
.ends

.subckt PM_SKY130_FD_SC_LP__SDFBBN_2%A_1423_401# 1 2 9 13 17 21 25 30 32 36 43
+ 44 46 48 49 50 53
c124 50 0 1.26967e-19 $X=10.17 $Y=1.575
c125 36 0 8.25457e-20 $X=7.565 $Y=1.99
r126 49 57 45.9078 $w=4.1e-07 $l=1.65e-07 $layer=POLY_cond $X=10.375 $Y=1.57
+ $X2=10.375 $Y2=1.735
r127 49 56 45.9078 $w=4.1e-07 $l=1.65e-07 $layer=POLY_cond $X=10.375 $Y=1.57
+ $X2=10.375 $Y2=1.405
r128 48 50 8.69362 $w=2.58e-07 $l=1.65e-07 $layer=LI1_cond $X=10.335 $Y=1.575
+ $X2=10.17 $Y2=1.575
r129 48 49 145.28 $w=1.7e-07 $l=1.7e-07 $layer=licon1_POLY $count=1 $X=10.335
+ $Y=1.57 $X2=10.335 $Y2=1.57
r130 42 44 9.76211 $w=6.78e-07 $l=5.55e-07 $layer=LI1_cond $X=8.69 $Y=2.415
+ $X2=9.245 $Y2=2.415
r131 42 43 10.6764 $w=6.78e-07 $l=1.65e-07 $layer=LI1_cond $X=8.69 $Y=2.415
+ $X2=8.525 $Y2=2.415
r132 37 53 38.6272 $w=2.87e-07 $l=2.3e-07 $layer=POLY_cond $X=7.565 $Y=1.99
+ $X2=7.335 $Y2=1.99
r133 36 39 10.4747 $w=1.78e-07 $l=1.7e-07 $layer=LI1_cond $X=7.565 $Y=1.99
+ $X2=7.565 $Y2=2.16
r134 36 37 145.28 $w=1.7e-07 $l=1.7e-07 $layer=licon1_POLY $count=1 $X=7.565
+ $Y=1.99 $X2=7.565 $Y2=1.99
r135 34 46 1.34256 $w=1.7e-07 $l=8.5e-08 $layer=LI1_cond $X=9.33 $Y=1.53
+ $X2=9.245 $Y2=1.53
r136 34 50 54.8021 $w=1.68e-07 $l=8.4e-07 $layer=LI1_cond $X=9.33 $Y=1.53
+ $X2=10.17 $Y2=1.53
r137 32 44 9.13095 $w=1.7e-07 $l=3.4e-07 $layer=LI1_cond $X=9.245 $Y=2.075
+ $X2=9.245 $Y2=2.415
r138 31 46 5.16603 $w=1.7e-07 $l=8.5e-08 $layer=LI1_cond $X=9.245 $Y=1.615
+ $X2=9.245 $Y2=1.53
r139 31 32 30.0107 $w=1.68e-07 $l=4.6e-07 $layer=LI1_cond $X=9.245 $Y=1.615
+ $X2=9.245 $Y2=2.075
r140 30 46 5.16603 $w=1.7e-07 $l=8.5e-08 $layer=LI1_cond $X=9.245 $Y=1.445
+ $X2=9.245 $Y2=1.53
r141 29 30 14.3529 $w=1.68e-07 $l=2.2e-07 $layer=LI1_cond $X=9.245 $Y=1.225
+ $X2=9.245 $Y2=1.445
r142 25 29 7.10164 $w=2.18e-07 $l=1.67183e-07 $layer=LI1_cond $X=9.16 $Y=1.095
+ $X2=9.245 $Y2=1.225
r143 25 27 7.09196 $w=2.58e-07 $l=1.6e-07 $layer=LI1_cond $X=9.16 $Y=1.095 $X2=9
+ $Y2=1.095
r144 24 39 1.06262 $w=1.7e-07 $l=9e-08 $layer=LI1_cond $X=7.655 $Y=2.16
+ $X2=7.565 $Y2=2.16
r145 24 43 56.7594 $w=1.68e-07 $l=8.7e-07 $layer=LI1_cond $X=7.655 $Y=2.16
+ $X2=8.525 $Y2=2.16
r146 21 57 297.404 $w=1.5e-07 $l=5.8e-07 $layer=POLY_cond $X=10.505 $Y=2.315
+ $X2=10.505 $Y2=1.735
r147 17 56 251.255 $w=1.5e-07 $l=4.9e-07 $layer=POLY_cond $X=10.505 $Y=0.915
+ $X2=10.505 $Y2=1.405
r148 11 53 17.9292 $w=1.5e-07 $l=1.65e-07 $layer=POLY_cond $X=7.335 $Y=1.825
+ $X2=7.335 $Y2=1.99
r149 11 13 476.872 $w=1.5e-07 $l=9.3e-07 $layer=POLY_cond $X=7.335 $Y=1.825
+ $X2=7.335 $Y2=0.895
r150 7 53 24.3519 $w=2.87e-07 $l=2.26164e-07 $layer=POLY_cond $X=7.19 $Y=2.155
+ $X2=7.335 $Y2=1.99
r151 7 9 189.723 $w=1.5e-07 $l=3.7e-07 $layer=POLY_cond $X=7.19 $Y=2.155
+ $X2=7.19 $Y2=2.525
r152 2 42 300 $w=1.7e-07 $l=4.64354e-07 $layer=licon1_PDIFF $count=2 $X=8.41
+ $Y=1.895 $X2=8.69 $Y2=2.24
r153 1 27 182 $w=1.7e-07 $l=7.58436e-07 $layer=licon1_NDIFF $count=1 $X=8.8
+ $Y=0.465 $X2=9 $Y2=1.13
.ends

.subckt PM_SKY130_FD_SC_LP__SDFBBN_2%SET_B 1 3 6 10 12 13 15 18 20 22 23 29 30
+ 33 34 37 39
c132 33 0 1.38231e-19 $X=8.275 $Y=1.38
c133 23 0 1.4512e-19 $X=8.545 $Y=1.295
c134 22 0 1.78884e-19 $X=12.575 $Y=1.295
c135 18 0 3.77964e-20 $X=13.065 $Y=2.105
c136 13 0 6.75576e-20 $X=13.065 $Y=2.18
r137 37 40 46.2115 $w=3.3e-07 $l=1.65e-07 $layer=POLY_cond $X=12.785 $Y=1.51
+ $X2=12.785 $Y2=1.675
r138 37 39 46.2115 $w=3.3e-07 $l=1.65e-07 $layer=POLY_cond $X=12.785 $Y=1.51
+ $X2=12.785 $Y2=1.345
r139 37 38 145.28 $w=1.7e-07 $l=1.7e-07 $layer=licon1_POLY $count=1 $X=12.785
+ $Y=1.51 $X2=12.785 $Y2=1.51
r140 33 35 46.2115 $w=3.3e-07 $l=1.65e-07 $layer=POLY_cond $X=8.275 $Y=1.38
+ $X2=8.275 $Y2=1.545
r141 33 34 145.28 $w=1.7e-07 $l=1.7e-07 $layer=licon1_POLY $count=1 $X=8.275
+ $Y=1.38 $X2=8.275 $Y2=1.38
r142 30 38 7.18189 $w=3.43e-07 $l=2.15e-07 $layer=LI1_cond $X=12.777 $Y=1.295
+ $X2=12.777 $Y2=1.51
r143 29 30 9.3 $w=1.7e-07 $l=1.7e-07 $layer=mcon $count=1 $X=12.72 $Y=1.295
+ $X2=12.72 $Y2=1.295
r144 25 34 9.3 $w=1.7e-07 $l=1.7e-07 $layer=mcon $count=1 $X=8.4 $Y=1.295
+ $X2=8.4 $Y2=1.295
r145 23 25 0.115467 $w=2.3e-07 $l=1.45e-07 $layer=MET1_cond $X=8.545 $Y=1.295
+ $X2=8.4 $Y2=1.295
r146 22 29 0.115467 $w=2.3e-07 $l=1.45e-07 $layer=MET1_cond $X=12.575 $Y=1.295
+ $X2=12.72 $Y2=1.295
r147 22 23 4.98761 $w=1.4e-07 $l=4.03e-06 $layer=MET1_cond $X=12.575 $Y=1.295
+ $X2=8.545 $Y2=1.295
r148 20 38 5.17764 $w=3.43e-07 $l=1.55e-07 $layer=LI1_cond $X=12.777 $Y=1.665
+ $X2=12.777 $Y2=1.51
r149 16 18 97.4255 $w=1.5e-07 $l=1.9e-07 $layer=POLY_cond $X=12.875 $Y=2.105
+ $X2=13.065 $Y2=2.105
r150 13 18 2.83073 $w=1.5e-07 $l=7.5e-08 $layer=POLY_cond $X=13.065 $Y=2.18
+ $X2=13.065 $Y2=2.105
r151 13 15 159.06 $w=1.5e-07 $l=4.95e-07 $layer=POLY_cond $X=13.065 $Y=2.18
+ $X2=13.065 $Y2=2.675
r152 12 16 2.83073 $w=1.5e-07 $l=7.5e-08 $layer=POLY_cond $X=12.875 $Y=2.03
+ $X2=12.875 $Y2=2.105
r153 12 40 182.032 $w=1.5e-07 $l=3.55e-07 $layer=POLY_cond $X=12.875 $Y=2.03
+ $X2=12.875 $Y2=1.675
r154 10 39 138.173 $w=1.5e-07 $l=4.3e-07 $layer=POLY_cond $X=12.795 $Y=0.915
+ $X2=12.795 $Y2=1.345
r155 6 35 394.83 $w=1.5e-07 $l=7.7e-07 $layer=POLY_cond $X=8.335 $Y=2.315
+ $X2=8.335 $Y2=1.545
r156 1 33 46.2115 $w=3.3e-07 $l=1.65e-07 $layer=POLY_cond $X=8.275 $Y=1.215
+ $X2=8.275 $Y2=1.38
r157 1 3 138.173 $w=1.5e-07 $l=4.3e-07 $layer=POLY_cond $X=8.275 $Y=1.215
+ $X2=8.275 $Y2=0.785
.ends

.subckt PM_SKY130_FD_SC_LP__SDFBBN_2%A_1273_137# 1 2 9 13 17 21 23 26 27 28 29
+ 33 34 36 37
c111 36 0 1.09444e-19 $X=6.585 $Y=2.16
c112 34 0 2.20873e-19 $X=8.815 $Y=1.57
c113 33 0 2.83351e-19 $X=8.815 $Y=1.57
c114 29 0 1.92809e-19 $X=8.705 $Y=1.81
c115 26 0 1.18451e-19 $X=7.21 $Y=2.075
r116 37 39 16.3102 $w=1.68e-07 $l=2.5e-07 $layer=LI1_cond $X=7.92 $Y=1.56
+ $X2=7.92 $Y2=1.81
r117 34 43 46.2115 $w=3.3e-07 $l=1.65e-07 $layer=POLY_cond $X=8.815 $Y=1.57
+ $X2=8.815 $Y2=1.735
r118 34 42 46.2115 $w=3.3e-07 $l=1.65e-07 $layer=POLY_cond $X=8.815 $Y=1.57
+ $X2=8.815 $Y2=1.405
r119 33 34 145.28 $w=1.7e-07 $l=1.7e-07 $layer=licon1_POLY $count=1 $X=8.815
+ $Y=1.57 $X2=8.815 $Y2=1.57
r120 31 33 6.49559 $w=2.73e-07 $l=1.55e-07 $layer=LI1_cond $X=8.842 $Y=1.725
+ $X2=8.842 $Y2=1.57
r121 30 39 0.716491 $w=1.7e-07 $l=8.5e-08 $layer=LI1_cond $X=8.005 $Y=1.81
+ $X2=7.92 $Y2=1.81
r122 29 31 7.32204 $w=1.7e-07 $l=1.74396e-07 $layer=LI1_cond $X=8.705 $Y=1.81
+ $X2=8.842 $Y2=1.725
r123 29 30 45.6684 $w=1.68e-07 $l=7e-07 $layer=LI1_cond $X=8.705 $Y=1.81
+ $X2=8.005 $Y2=1.81
r124 27 37 0.716491 $w=1.7e-07 $l=8.5e-08 $layer=LI1_cond $X=7.835 $Y=1.56
+ $X2=7.92 $Y2=1.56
r125 27 28 35.2299 $w=1.68e-07 $l=5.4e-07 $layer=LI1_cond $X=7.835 $Y=1.56
+ $X2=7.295 $Y2=1.56
r126 25 28 6.81649 $w=1.7e-07 $l=1.20208e-07 $layer=LI1_cond $X=7.21 $Y=1.645
+ $X2=7.295 $Y2=1.56
r127 25 26 28.0535 $w=1.68e-07 $l=4.3e-07 $layer=LI1_cond $X=7.21 $Y=1.645
+ $X2=7.21 $Y2=2.075
r128 24 36 2.76166 $w=1.7e-07 $l=1.65e-07 $layer=LI1_cond $X=6.75 $Y=2.16
+ $X2=6.585 $Y2=2.16
r129 23 26 6.81649 $w=1.7e-07 $l=1.20208e-07 $layer=LI1_cond $X=7.125 $Y=2.16
+ $X2=7.21 $Y2=2.075
r130 23 24 24.4652 $w=1.68e-07 $l=3.75e-07 $layer=LI1_cond $X=7.125 $Y=2.16
+ $X2=6.75 $Y2=2.16
r131 19 36 3.70735 $w=2.5e-07 $l=8.5e-08 $layer=LI1_cond $X=6.585 $Y=2.245
+ $X2=6.585 $Y2=2.16
r132 19 21 9.7783 $w=3.28e-07 $l=2.8e-07 $layer=LI1_cond $X=6.585 $Y=2.245
+ $X2=6.585 $Y2=2.525
r133 15 36 3.70735 $w=2.5e-07 $l=1.18427e-07 $layer=LI1_cond $X=6.505 $Y=2.075
+ $X2=6.585 $Y2=2.16
r134 15 17 76.984 $w=1.68e-07 $l=1.18e-06 $layer=LI1_cond $X=6.505 $Y=2.075
+ $X2=6.505 $Y2=0.895
r135 13 43 297.404 $w=1.5e-07 $l=5.8e-07 $layer=POLY_cond $X=8.905 $Y=2.315
+ $X2=8.905 $Y2=1.735
r136 9 42 317.915 $w=1.5e-07 $l=6.2e-07 $layer=POLY_cond $X=8.725 $Y=0.785
+ $X2=8.725 $Y2=1.405
r137 2 21 600 $w=1.7e-07 $l=3.07571e-07 $layer=licon1_PDIFF $count=1 $X=6.365
+ $Y=2.315 $X2=6.585 $Y2=2.525
r138 1 17 182 $w=1.7e-07 $l=2.71109e-07 $layer=licon1_NDIFF $count=1 $X=6.365
+ $Y=0.685 $X2=6.505 $Y2=0.895
.ends

.subckt PM_SKY130_FD_SC_LP__SDFBBN_2%A_978_67# 1 2 7 8 11 13 18 19 20 24 25 26
+ 28 29 30 31 33 35 37 38 42 43 46
c132 35 0 1.06469e-20 $X=6.29 $Y=1.87
c133 24 0 1.22987e-19 $X=10.98 $Y=2.56
c134 18 0 2.24221e-19 $X=6.8 $Y=2.525
r135 46 48 8.73685 $w=3.28e-07 $l=2.3e-07 $layer=LI1_cond $X=5.035 $Y=0.545
+ $X2=5.035 $Y2=0.775
r136 42 43 72.64 $w=1.7e-07 $l=3.4e-07 $layer=licon1_POLY $count=2 $X=5.78
+ $Y=1.48 $X2=5.78 $Y2=1.48
r137 40 42 14.0389 $w=2.73e-07 $l=3.35e-07 $layer=LI1_cond $X=5.752 $Y=1.815
+ $X2=5.752 $Y2=1.48
r138 39 50 3.9577 $w=1.7e-07 $l=1.60078e-07 $layer=LI1_cond $X=5.2 $Y=1.9
+ $X2=5.075 $Y2=1.98
r139 38 40 7.32204 $w=1.7e-07 $l=1.74396e-07 $layer=LI1_cond $X=5.615 $Y=1.9
+ $X2=5.752 $Y2=1.815
r140 38 39 27.0749 $w=1.68e-07 $l=4.15e-07 $layer=LI1_cond $X=5.615 $Y=1.9
+ $X2=5.2 $Y2=1.9
r141 37 50 3.18546 $w=2.5e-07 $l=1.65e-07 $layer=LI1_cond $X=5.075 $Y=1.815
+ $X2=5.075 $Y2=1.98
r142 37 48 47.9416 $w=2.48e-07 $l=1.04e-06 $layer=LI1_cond $X=5.075 $Y=1.815
+ $X2=5.075 $Y2=0.775
r143 34 43 55.0813 $w=3.3e-07 $l=3.15e-07 $layer=POLY_cond $X=5.78 $Y=1.795
+ $X2=5.78 $Y2=1.48
r144 31 33 91.58 $w=1.5e-07 $l=2.85e-07 $layer=POLY_cond $X=11.76 $Y=1.31
+ $X2=11.76 $Y2=1.025
r145 29 31 26.9307 $w=1.5e-07 $l=1.06066e-07 $layer=POLY_cond $X=11.685 $Y=1.385
+ $X2=11.76 $Y2=1.31
r146 29 30 105.117 $w=1.5e-07 $l=2.05e-07 $layer=POLY_cond $X=11.685 $Y=1.385
+ $X2=11.48 $Y2=1.385
r147 27 30 26.9307 $w=1.5e-07 $l=1.06066e-07 $layer=POLY_cond $X=11.405 $Y=1.46
+ $X2=11.48 $Y2=1.385
r148 27 28 233.309 $w=1.5e-07 $l=4.55e-07 $layer=POLY_cond $X=11.405 $Y=1.46
+ $X2=11.405 $Y2=1.915
r149 25 28 26.9307 $w=1.5e-07 $l=1.06066e-07 $layer=POLY_cond $X=11.33 $Y=1.99
+ $X2=11.405 $Y2=1.915
r150 25 26 141.011 $w=1.5e-07 $l=2.75e-07 $layer=POLY_cond $X=11.33 $Y=1.99
+ $X2=11.055 $Y2=1.99
r151 22 24 264.074 $w=1.5e-07 $l=5.15e-07 $layer=POLY_cond $X=10.98 $Y=3.075
+ $X2=10.98 $Y2=2.56
r152 21 26 26.9307 $w=1.5e-07 $l=1.06066e-07 $layer=POLY_cond $X=10.98 $Y=2.065
+ $X2=11.055 $Y2=1.99
r153 21 24 253.819 $w=1.5e-07 $l=4.95e-07 $layer=POLY_cond $X=10.98 $Y=2.065
+ $X2=10.98 $Y2=2.56
r154 19 22 26.9307 $w=1.5e-07 $l=1.06066e-07 $layer=POLY_cond $X=10.905 $Y=3.15
+ $X2=10.98 $Y2=3.075
r155 19 20 2066.45 $w=1.5e-07 $l=4.03e-06 $layer=POLY_cond $X=10.905 $Y=3.15
+ $X2=6.875 $Y2=3.15
r156 16 20 26.9307 $w=1.5e-07 $l=1.06066e-07 $layer=POLY_cond $X=6.8 $Y=3.075
+ $X2=6.875 $Y2=3.15
r157 16 18 282.021 $w=1.5e-07 $l=5.5e-07 $layer=POLY_cond $X=6.8 $Y=3.075
+ $X2=6.8 $Y2=2.525
r158 15 18 297.404 $w=1.5e-07 $l=5.8e-07 $layer=POLY_cond $X=6.8 $Y=1.945
+ $X2=6.8 $Y2=2.525
r159 14 35 20.4101 $w=1.5e-07 $l=7.5e-08 $layer=POLY_cond $X=6.365 $Y=1.87
+ $X2=6.29 $Y2=1.87
r160 13 15 26.9307 $w=1.5e-07 $l=1.06066e-07 $layer=POLY_cond $X=6.725 $Y=1.87
+ $X2=6.8 $Y2=1.945
r161 13 14 184.596 $w=1.5e-07 $l=3.6e-07 $layer=POLY_cond $X=6.725 $Y=1.87
+ $X2=6.365 $Y2=1.87
r162 9 35 5.30422 $w=1.5e-07 $l=7.5e-08 $layer=POLY_cond $X=6.29 $Y=1.795
+ $X2=6.29 $Y2=1.87
r163 9 11 461.489 $w=1.5e-07 $l=9e-07 $layer=POLY_cond $X=6.29 $Y=1.795 $X2=6.29
+ $Y2=0.895
r164 8 34 32.1775 $w=1.5e-07 $l=1.98997e-07 $layer=POLY_cond $X=5.945 $Y=1.87
+ $X2=5.78 $Y2=1.795
r165 7 35 20.4101 $w=1.5e-07 $l=7.5e-08 $layer=POLY_cond $X=6.215 $Y=1.87
+ $X2=6.29 $Y2=1.87
r166 7 8 138.447 $w=1.5e-07 $l=2.7e-07 $layer=POLY_cond $X=6.215 $Y=1.87
+ $X2=5.945 $Y2=1.87
r167 2 50 600 $w=1.7e-07 $l=1.99687e-07 $layer=licon1_PDIFF $count=1 $X=4.905
+ $Y=1.835 $X2=5.035 $Y2=1.98
r168 1 46 182 $w=1.7e-07 $l=2.73038e-07 $layer=licon1_NDIFF $count=1 $X=4.89
+ $Y=0.335 $X2=5.035 $Y2=0.545
.ends

.subckt PM_SKY130_FD_SC_LP__SDFBBN_2%A_2415_137# 1 2 7 9 14 18 22 24 28 32 34 37
+ 39 40 41 42 43 46 48 50 53 55 56 57 61 65 68 69 72 74 75 79 83 85 86 90 94 96
c206 75 0 1.88236e-20 $X=12.395 $Y=2.125
c207 74 0 1.05354e-19 $X=12.395 $Y=2.125
c208 57 0 8.16742e-20 $X=13.115 $Y=2.205
c209 18 0 1.49913e-19 $X=15.355 $Y=2.465
r210 96 97 30.474 $w=3.3e-07 $l=7.5e-08 $layer=POLY_cond $X=15.33 $Y=1.38
+ $X2=15.33 $Y2=1.305
r211 91 99 46.2115 $w=3.3e-07 $l=1.65e-07 $layer=POLY_cond $X=15.33 $Y=1.47
+ $X2=15.33 $Y2=1.635
r212 91 96 15.7375 $w=3.3e-07 $l=9e-08 $layer=POLY_cond $X=15.33 $Y=1.47
+ $X2=15.33 $Y2=1.38
r213 90 91 145.28 $w=1.7e-07 $l=1.7e-07 $layer=licon1_POLY $count=1 $X=15.33
+ $Y=1.47 $X2=15.33 $Y2=1.47
r214 87 90 3.84148 $w=3.28e-07 $l=1.1e-07 $layer=LI1_cond $X=15.22 $Y=1.47
+ $X2=15.33 $Y2=1.47
r215 84 85 8.63679 $w=3.28e-07 $l=1.7e-07 $layer=LI1_cond $X=13.657 $Y=0.995
+ $X2=13.657 $Y2=1.165
r216 82 83 2.61919 $w=3.28e-07 $l=7.5e-08 $layer=LI1_cond $X=13.28 $Y=2.4
+ $X2=13.28 $Y2=2.475
r217 79 82 6.80989 $w=3.28e-07 $l=1.95e-07 $layer=LI1_cond $X=13.28 $Y=2.205
+ $X2=13.28 $Y2=2.4
r218 75 95 46.2115 $w=3.3e-07 $l=1.65e-07 $layer=POLY_cond $X=12.395 $Y=2.125
+ $X2=12.395 $Y2=2.29
r219 75 94 46.2115 $w=3.3e-07 $l=1.65e-07 $layer=POLY_cond $X=12.395 $Y=2.125
+ $X2=12.395 $Y2=1.96
r220 74 77 2.7938 $w=3.28e-07 $l=8e-08 $layer=LI1_cond $X=12.395 $Y=2.125
+ $X2=12.395 $Y2=2.205
r221 74 75 145.28 $w=1.7e-07 $l=1.7e-07 $layer=licon1_POLY $count=1 $X=12.395
+ $Y=2.125 $X2=12.395 $Y2=2.125
r222 71 87 4.62375 $w=1.7e-07 $l=1.65e-07 $layer=LI1_cond $X=15.22 $Y=1.635
+ $X2=15.22 $Y2=1.47
r223 71 72 49.2567 $w=1.68e-07 $l=7.55e-07 $layer=LI1_cond $X=15.22 $Y=1.635
+ $X2=15.22 $Y2=2.39
r224 70 86 5.16603 $w=1.7e-07 $l=8.5e-08 $layer=LI1_cond $X=13.835 $Y=2.475
+ $X2=13.75 $Y2=2.475
r225 69 72 6.81649 $w=1.7e-07 $l=1.20208e-07 $layer=LI1_cond $X=15.135 $Y=2.475
+ $X2=15.22 $Y2=2.39
r226 69 70 84.8128 $w=1.68e-07 $l=1.3e-06 $layer=LI1_cond $X=15.135 $Y=2.475
+ $X2=13.835 $Y2=2.475
r227 68 86 1.34256 $w=1.7e-07 $l=8.5e-08 $layer=LI1_cond $X=13.75 $Y=2.39
+ $X2=13.75 $Y2=2.475
r228 68 85 79.9198 $w=1.68e-07 $l=1.225e-06 $layer=LI1_cond $X=13.75 $Y=2.39
+ $X2=13.75 $Y2=1.165
r229 65 84 6.28605 $w=3.28e-07 $l=1.8e-07 $layer=LI1_cond $X=13.645 $Y=0.815
+ $X2=13.645 $Y2=0.995
r230 62 83 4.62375 $w=1.7e-07 $l=1.65e-07 $layer=LI1_cond $X=13.445 $Y=2.475
+ $X2=13.28 $Y2=2.475
r231 61 86 5.16603 $w=1.7e-07 $l=8.5e-08 $layer=LI1_cond $X=13.665 $Y=2.475
+ $X2=13.75 $Y2=2.475
r232 61 62 14.3529 $w=1.68e-07 $l=2.2e-07 $layer=LI1_cond $X=13.665 $Y=2.475
+ $X2=13.445 $Y2=2.475
r233 58 77 4.62375 $w=1.7e-07 $l=1.65e-07 $layer=LI1_cond $X=12.56 $Y=2.205
+ $X2=12.395 $Y2=2.205
r234 57 79 4.62375 $w=1.7e-07 $l=1.65e-07 $layer=LI1_cond $X=13.115 $Y=2.205
+ $X2=13.28 $Y2=2.205
r235 57 58 36.2086 $w=1.68e-07 $l=5.55e-07 $layer=LI1_cond $X=13.115 $Y=2.205
+ $X2=12.56 $Y2=2.205
r236 51 53 79.4787 $w=1.5e-07 $l=1.55e-07 $layer=POLY_cond $X=12.15 $Y=1.385
+ $X2=12.305 $Y2=1.385
r237 48 50 126.927 $w=1.5e-07 $l=3.95e-07 $layer=POLY_cond $X=16.805 $Y=1.905
+ $X2=16.805 $Y2=2.3
r238 44 46 179.468 $w=1.5e-07 $l=3.5e-07 $layer=POLY_cond $X=16.805 $Y=0.795
+ $X2=16.805 $Y2=0.445
r239 42 48 26.9307 $w=1.5e-07 $l=1.06066e-07 $layer=POLY_cond $X=16.73 $Y=1.83
+ $X2=16.805 $Y2=1.905
r240 42 43 169.213 $w=1.5e-07 $l=3.3e-07 $layer=POLY_cond $X=16.73 $Y=1.83
+ $X2=16.4 $Y2=1.83
r241 40 44 26.9307 $w=1.5e-07 $l=1.06066e-07 $layer=POLY_cond $X=16.73 $Y=0.87
+ $X2=16.805 $Y2=0.795
r242 40 41 169.213 $w=1.5e-07 $l=3.3e-07 $layer=POLY_cond $X=16.73 $Y=0.87
+ $X2=16.4 $Y2=0.87
r243 39 43 26.9307 $w=1.5e-07 $l=1.06066e-07 $layer=POLY_cond $X=16.325 $Y=1.755
+ $X2=16.4 $Y2=1.83
r244 38 56 20.4101 $w=1.5e-07 $l=7.5e-08 $layer=POLY_cond $X=16.325 $Y=1.455
+ $X2=16.325 $Y2=1.38
r245 38 39 153.83 $w=1.5e-07 $l=3e-07 $layer=POLY_cond $X=16.325 $Y=1.455
+ $X2=16.325 $Y2=1.755
r246 37 56 20.4101 $w=1.5e-07 $l=7.5e-08 $layer=POLY_cond $X=16.325 $Y=1.305
+ $X2=16.325 $Y2=1.38
r247 36 41 26.9307 $w=1.5e-07 $l=1.06066e-07 $layer=POLY_cond $X=16.325 $Y=0.945
+ $X2=16.4 $Y2=0.87
r248 36 37 184.596 $w=1.5e-07 $l=3.6e-07 $layer=POLY_cond $X=16.325 $Y=0.945
+ $X2=16.325 $Y2=1.305
r249 35 55 12.05 $w=1.5e-07 $l=7.8e-08 $layer=POLY_cond $X=15.865 $Y=1.38
+ $X2=15.787 $Y2=1.38
r250 34 56 5.30422 $w=1.5e-07 $l=7.5e-08 $layer=POLY_cond $X=16.25 $Y=1.38
+ $X2=16.325 $Y2=1.38
r251 34 35 197.415 $w=1.5e-07 $l=3.85e-07 $layer=POLY_cond $X=16.25 $Y=1.38
+ $X2=15.865 $Y2=1.38
r252 30 55 12.05 $w=1.5e-07 $l=7.64853e-08 $layer=POLY_cond $X=15.79 $Y=1.305
+ $X2=15.787 $Y2=1.38
r253 30 32 317.915 $w=1.5e-07 $l=6.2e-07 $layer=POLY_cond $X=15.79 $Y=1.305
+ $X2=15.79 $Y2=0.685
r254 26 55 12.05 $w=1.5e-07 $l=7.59934e-08 $layer=POLY_cond $X=15.785 $Y=1.455
+ $X2=15.787 $Y2=1.38
r255 26 28 517.894 $w=1.5e-07 $l=1.01e-06 $layer=POLY_cond $X=15.785 $Y=1.455
+ $X2=15.785 $Y2=2.465
r256 25 96 21.2229 $w=1.5e-07 $l=1.65e-07 $layer=POLY_cond $X=15.495 $Y=1.38
+ $X2=15.33 $Y2=1.38
r257 24 55 12.05 $w=1.5e-07 $l=7.7e-08 $layer=POLY_cond $X=15.71 $Y=1.38
+ $X2=15.787 $Y2=1.38
r258 24 25 110.245 $w=1.5e-07 $l=2.15e-07 $layer=POLY_cond $X=15.71 $Y=1.38
+ $X2=15.495 $Y2=1.38
r259 22 97 317.915 $w=1.5e-07 $l=6.2e-07 $layer=POLY_cond $X=15.36 $Y=0.685
+ $X2=15.36 $Y2=1.305
r260 18 99 425.596 $w=1.5e-07 $l=8.3e-07 $layer=POLY_cond $X=15.355 $Y=2.465
+ $X2=15.355 $Y2=1.635
r261 14 95 230.745 $w=1.5e-07 $l=4.5e-07 $layer=POLY_cond $X=12.335 $Y=2.74
+ $X2=12.335 $Y2=2.29
r262 10 53 2.83073 $w=1.5e-07 $l=7.5e-08 $layer=POLY_cond $X=12.305 $Y=1.46
+ $X2=12.305 $Y2=1.385
r263 10 94 256.383 $w=1.5e-07 $l=5e-07 $layer=POLY_cond $X=12.305 $Y=1.46
+ $X2=12.305 $Y2=1.96
r264 7 51 2.83073 $w=1.5e-07 $l=7.5e-08 $layer=POLY_cond $X=12.15 $Y=1.31
+ $X2=12.15 $Y2=1.385
r265 7 9 91.58 $w=1.5e-07 $l=2.85e-07 $layer=POLY_cond $X=12.15 $Y=1.31
+ $X2=12.15 $Y2=1.025
r266 2 82 300 $w=1.7e-07 $l=2.03286e-07 $layer=licon1_PDIFF $count=2 $X=13.14
+ $Y=2.255 $X2=13.28 $Y2=2.4
r267 1 65 182 $w=1.7e-07 $l=2.98496e-07 $layer=licon1_NDIFF $count=1 $X=13.46
+ $Y=0.595 $X2=13.645 $Y2=0.815
.ends

.subckt PM_SKY130_FD_SC_LP__SDFBBN_2%A_2211_428# 1 2 9 13 17 20 22 23 26 33 34
c90 22 0 2.25888e-20 $X=11.195 $Y=2.415
c91 13 0 8.16742e-20 $X=13.495 $Y=2.675
r92 34 38 45.9078 $w=4.1e-07 $l=1.65e-07 $layer=POLY_cond $X=13.365 $Y=1.625
+ $X2=13.365 $Y2=1.79
r93 34 37 45.9078 $w=4.1e-07 $l=1.65e-07 $layer=POLY_cond $X=13.365 $Y=1.625
+ $X2=13.365 $Y2=1.46