* File: sky130_fd_sc_lp__bufbuf_16.pex.spice
* Created: Fri Aug 28 10:10:58 2020
* Program "Calibre xRC"
* Version "v2018.4_34.26"
* Nominal Temperature: 27C
* Circuit Temperature: 27C
* 
.subckt PM_SKY130_FD_SC_LP__BUFBUF_16%A 3 7 9 12 13
r31 12 15 45.5639 $w=3.95e-07 $l=1.65e-07 $layer=POLY_cond $X=0.352 $Y=1.46
+ $X2=0.352 $Y2=1.625
r32 12 14 45.5639 $w=3.95e-07 $l=1.65e-07 $layer=POLY_cond $X=0.352 $Y=1.46
+ $X2=0.352 $Y2=1.295
r33 12 13 145.28 $w=1.7e-07 $l=1.7e-07 $layer=licon1_POLY $count=1 $X=0.32
+ $Y=1.46 $X2=0.32 $Y2=1.46
r34 9 13 7.15912 $w=3.28e-07 $l=2.05e-07 $layer=LI1_cond $X=0.32 $Y=1.665
+ $X2=0.32 $Y2=1.46
r35 7 15 430.723 $w=1.5e-07 $l=8.4e-07 $layer=POLY_cond $X=0.475 $Y=2.465
+ $X2=0.475 $Y2=1.625
r36 3 14 323.043 $w=1.5e-07 $l=6.3e-07 $layer=POLY_cond $X=0.475 $Y=0.665
+ $X2=0.475 $Y2=1.295
.ends

.subckt PM_SKY130_FD_SC_LP__BUFBUF_16%A_27_49# 1 2 9 13 17 21 25 29 33 35 37 39
+ 40 41 44 46 52 53 57 58
c103 53 0 9.40868e-20 $X=2.015 $Y=1.49
c104 52 0 1.2152e-19 $X=2.015 $Y=1.49
r105 64 65 75.1904 $w=3.3e-07 $l=4.3e-07 $layer=POLY_cond $X=1.335 $Y=1.49
+ $X2=1.765 $Y2=1.49
r106 58 65 13.1146 $w=3.3e-07 $l=7.5e-08 $layer=POLY_cond $X=1.84 $Y=1.49
+ $X2=1.765 $Y2=1.49
r107 53 58 30.6007 $w=3.3e-07 $l=1.75e-07 $layer=POLY_cond $X=2.015 $Y=1.49
+ $X2=1.84 $Y2=1.49
r108 52 53 72.64 $w=1.7e-07 $l=3.4e-07 $layer=licon1_POLY $count=2 $X=2.015
+ $Y=1.49 $X2=2.015 $Y2=1.49
r109 50 64 59.4528 $w=3.3e-07 $l=3.4e-07 $layer=POLY_cond $X=0.995 $Y=1.49
+ $X2=1.335 $Y2=1.49
r110 50 61 15.7375 $w=3.3e-07 $l=9e-08 $layer=POLY_cond $X=0.995 $Y=1.49
+ $X2=0.905 $Y2=1.49
r111 49 52 61.1499 $w=1.83e-07 $l=1.02e-06 $layer=LI1_cond $X=0.995 $Y=1.497
+ $X2=2.015 $Y2=1.497
r112 49 50 72.64 $w=1.7e-07 $l=3.4e-07 $layer=licon1_POLY $count=2 $X=0.995
+ $Y=1.49 $X2=0.995 $Y2=1.49
r113 47 57 1.03991 $w=1.85e-07 $l=8.5e-08 $layer=LI1_cond $X=0.835 $Y=1.497
+ $X2=0.75 $Y2=1.497
r114 47 49 9.59214 $w=1.83e-07 $l=1.6e-07 $layer=LI1_cond $X=0.835 $Y=1.497
+ $X2=0.995 $Y2=1.497
r115 45 57 5.53942 $w=1.7e-07 $l=9.3e-08 $layer=LI1_cond $X=0.75 $Y=1.59
+ $X2=0.75 $Y2=1.497
r116 45 46 21.5294 $w=1.68e-07 $l=3.3e-07 $layer=LI1_cond $X=0.75 $Y=1.59
+ $X2=0.75 $Y2=1.92
r117 44 57 5.53942 $w=1.7e-07 $l=9.2e-08 $layer=LI1_cond $X=0.75 $Y=1.405
+ $X2=0.75 $Y2=1.497
r118 43 44 14.3529 $w=1.68e-07 $l=2.2e-07 $layer=LI1_cond $X=0.75 $Y=1.185
+ $X2=0.75 $Y2=1.405
r119 42 56 4.74967 $w=1.7e-07 $l=1.48e-07 $layer=LI1_cond $X=0.39 $Y=2.005
+ $X2=0.242 $Y2=2.005
r120 41 46 6.81649 $w=1.7e-07 $l=1.20208e-07 $layer=LI1_cond $X=0.665 $Y=2.005
+ $X2=0.75 $Y2=1.92
r121 41 42 17.9412 $w=1.68e-07 $l=2.75e-07 $layer=LI1_cond $X=0.665 $Y=2.005
+ $X2=0.39 $Y2=2.005
r122 39 43 6.81649 $w=1.7e-07 $l=1.20208e-07 $layer=LI1_cond $X=0.665 $Y=1.1
+ $X2=0.75 $Y2=1.185
r123 39 40 20.2246 $w=1.68e-07 $l=3.1e-07 $layer=LI1_cond $X=0.665 $Y=1.1
+ $X2=0.355 $Y2=1.1
r124 35 56 2.72785 $w=2.95e-07 $l=8.5e-08 $layer=LI1_cond $X=0.242 $Y=2.09
+ $X2=0.242 $Y2=2.005
r125 35 37 30.276 $w=2.93e-07 $l=7.75e-07 $layer=LI1_cond $X=0.242 $Y=2.09
+ $X2=0.242 $Y2=2.865
r126 31 40 7.21222 $w=1.7e-07 $l=1.67183e-07 $layer=LI1_cond $X=0.225 $Y=1.015
+ $X2=0.355 $Y2=1.1
r127 31 33 26.3732 $w=2.58e-07 $l=5.95e-07 $layer=LI1_cond $X=0.225 $Y=1.015
+ $X2=0.225 $Y2=0.42
r128 27 65 21.2229 $w=1.5e-07 $l=1.65e-07 $layer=POLY_cond $X=1.765 $Y=1.655
+ $X2=1.765 $Y2=1.49
r129 27 29 415.34 $w=1.5e-07 $l=8.1e-07 $layer=POLY_cond $X=1.765 $Y=1.655
+ $X2=1.765 $Y2=2.465
r130 23 65 21.2229 $w=1.5e-07 $l=1.65e-07 $layer=POLY_cond $X=1.765 $Y=1.325
+ $X2=1.765 $Y2=1.49
r131 23 25 338.426 $w=1.5e-07 $l=6.6e-07 $layer=POLY_cond $X=1.765 $Y=1.325
+ $X2=1.765 $Y2=0.665
r132 19 64 21.2229 $w=1.5e-07 $l=1.65e-07 $layer=POLY_cond $X=1.335 $Y=1.655
+ $X2=1.335 $Y2=1.49
r133 19 21 415.34 $w=1.5e-07 $l=8.1e-07 $layer=POLY_cond $X=1.335 $Y=1.655
+ $X2=1.335 $Y2=2.465
r134 15 64 21.2229 $w=1.5e-07 $l=1.65e-07 $layer=POLY_cond $X=1.335 $Y=1.325
+ $X2=1.335 $Y2=1.49
r135 15 17 338.426 $w=1.5e-07 $l=6.6e-07 $layer=POLY_cond $X=1.335 $Y=1.325
+ $X2=1.335 $Y2=0.665
r136 11 61 21.2229 $w=1.5e-07 $l=1.65e-07 $layer=POLY_cond $X=0.905 $Y=1.655
+ $X2=0.905 $Y2=1.49
r137 11 13 415.34 $w=1.5e-07 $l=8.1e-07 $layer=POLY_cond $X=0.905 $Y=1.655
+ $X2=0.905 $Y2=2.465
r138 7 61 21.2229 $w=1.5e-07 $l=1.65e-07 $layer=POLY_cond $X=0.905 $Y=1.325
+ $X2=0.905 $Y2=1.49
r139 7 9 338.426 $w=1.5e-07 $l=6.6e-07 $layer=POLY_cond $X=0.905 $Y=1.325
+ $X2=0.905 $Y2=0.665
r140 2 56 400 $w=1.7e-07 $l=3.06186e-07 $layer=licon1_PDIFF $count=1 $X=0.135
+ $Y=1.835 $X2=0.26 $Y2=2.085
r141 2 37 400 $w=1.7e-07 $l=1.09071e-06 $layer=licon1_PDIFF $count=1 $X=0.135
+ $Y=1.835 $X2=0.26 $Y2=2.865
r142 1 33 91 $w=1.7e-07 $l=2.29129e-07 $layer=licon1_NDIFF $count=2 $X=0.135
+ $Y=0.245 $X2=0.26 $Y2=0.42
.ends

.subckt PM_SKY130_FD_SC_LP__BUFBUF_16%A_196_49# 1 2 3 4 15 19 23 27 31 35 39 43
+ 47 51 55 59 63 69 71 72 73 74 77 81 85 87 90 96 99 100 113
c169 113 0 1.2152e-19 $X=5.125 $Y=1.48
c170 96 0 1.58852e-19 $X=4.97 $Y=1.48
c171 19 0 9.40868e-20 $X=2.975 $Y=2.465
r172 110 111 75.1904 $w=3.3e-07 $l=4.3e-07 $layer=POLY_cond $X=4.265 $Y=1.48
+ $X2=4.695 $Y2=1.48
r173 109 110 75.1904 $w=3.3e-07 $l=4.3e-07 $layer=POLY_cond $X=3.835 $Y=1.48
+ $X2=4.265 $Y2=1.48
r174 108 109 75.1904 $w=3.3e-07 $l=4.3e-07 $layer=POLY_cond $X=3.405 $Y=1.48
+ $X2=3.835 $Y2=1.48
r175 107 108 75.1904 $w=3.3e-07 $l=4.3e-07 $layer=POLY_cond $X=2.975 $Y=1.48
+ $X2=3.405 $Y2=1.48
r176 103 104 7.88995 $w=5.03e-07 $l=9.5e-08 $layer=LI1_cond $X=2.602 $Y=1.48
+ $X2=2.602 $Y2=1.575
r177 97 113 27.1035 $w=3.3e-07 $l=1.55e-07 $layer=POLY_cond $X=4.97 $Y=1.48
+ $X2=5.125 $Y2=1.48
r178 97 111 48.0869 $w=3.3e-07 $l=2.75e-07 $layer=POLY_cond $X=4.97 $Y=1.48
+ $X2=4.695 $Y2=1.48
r179 96 97 41.5086 $w=1.7e-07 $l=5.95e-07 $layer=licon1_POLY $count=3 $X=4.97
+ $Y=1.48 $X2=4.97 $Y2=1.48
r180 94 107 7.86876 $w=3.3e-07 $l=4.5e-08 $layer=POLY_cond $X=2.93 $Y=1.48
+ $X2=2.975 $Y2=1.48
r181 93 96 119.081 $w=1.88e-07 $l=2.04e-06 $layer=LI1_cond $X=2.93 $Y=1.48
+ $X2=4.97 $Y2=1.48
r182 93 94 41.5086 $w=1.7e-07 $l=5.95e-07 $layer=licon1_POLY $count=3 $X=2.93
+ $Y=1.48 $X2=2.93 $Y2=1.48
r183 91 103 6.52558 $w=1.9e-07 $l=2.53e-07 $layer=LI1_cond $X=2.855 $Y=1.48
+ $X2=2.602 $Y2=1.48
r184 91 93 4.37799 $w=1.88e-07 $l=7.5e-08 $layer=LI1_cond $X=2.855 $Y=1.48
+ $X2=2.93 $Y2=1.48
r185 90 104 12.0695 $w=1.68e-07 $l=1.85e-07 $layer=LI1_cond $X=2.435 $Y=1.76
+ $X2=2.435 $Y2=1.575
r186 88 100 7.00709 $w=1.77e-07 $l=1.33454e-07 $layer=LI1_cond $X=2.145 $Y=1.845
+ $X2=2.015 $Y2=1.852
r187 87 90 6.81649 $w=1.7e-07 $l=1.20208e-07 $layer=LI1_cond $X=2.35 $Y=1.845
+ $X2=2.435 $Y2=1.76
r188 87 88 13.3743 $w=1.68e-07 $l=2.05e-07 $layer=LI1_cond $X=2.35 $Y=1.845
+ $X2=2.145 $Y2=1.845
r189 86 99 7.24004 $w=1.7e-07 $l=1.3e-07 $layer=LI1_cond $X=2.145 $Y=1.15
+ $X2=2.015 $Y2=1.15
r190 85 103 7.81596 $w=5.03e-07 $l=3.3e-07 $layer=LI1_cond $X=2.602 $Y=1.15
+ $X2=2.602 $Y2=1.48
r191 85 86 13.3743 $w=1.68e-07 $l=2.05e-07 $layer=LI1_cond $X=2.35 $Y=1.15
+ $X2=2.145 $Y2=1.15
r192 81 83 37.2328 $w=2.58e-07 $l=8.4e-07 $layer=LI1_cond $X=2.015 $Y=2.025
+ $X2=2.015 $Y2=2.865
r193 79 100 0.0115521 $w=2.6e-07 $l=9.3e-08 $layer=LI1_cond $X=2.015 $Y=1.945
+ $X2=2.015 $Y2=1.852
r194 79 81 3.54598 $w=2.58e-07 $l=8e-08 $layer=LI1_cond $X=2.015 $Y=1.945
+ $X2=2.015 $Y2=2.025
r195 75 99 0.132371 $w=2.6e-07 $l=8.5e-08 $layer=LI1_cond $X=2.015 $Y=1.065
+ $X2=2.015 $Y2=1.15
r196 75 77 28.5895 $w=2.58e-07 $l=6.45e-07 $layer=LI1_cond $X=2.015 $Y=1.065
+ $X2=2.015 $Y2=0.42
r197 73 100 7.00709 $w=1.77e-07 $l=1.3e-07 $layer=LI1_cond $X=1.885 $Y=1.852
+ $X2=2.015 $Y2=1.852
r198 73 74 40.1671 $w=1.83e-07 $l=6.7e-07 $layer=LI1_cond $X=1.885 $Y=1.852
+ $X2=1.215 $Y2=1.852
r199 71 99 7.24004 $w=1.7e-07 $l=1.3e-07 $layer=LI1_cond $X=1.885 $Y=1.15
+ $X2=2.015 $Y2=1.15
r200 71 72 43.7112 $w=1.68e-07 $l=6.7e-07 $layer=LI1_cond $X=1.885 $Y=1.15
+ $X2=1.215 $Y2=1.15
r201 67 72 6.84389 $w=1.7e-07 $l=1.30767e-07 $layer=LI1_cond $X=1.12 $Y=1.065
+ $X2=1.215 $Y2=1.15
r202 67 69 37.6507 $w=1.88e-07 $l=6.45e-07 $layer=LI1_cond $X=1.12 $Y=1.065
+ $X2=1.12 $Y2=0.42
r203 63 65 44.3636 $w=2.08e-07 $l=8.4e-07 $layer=LI1_cond $X=1.11 $Y=2.025
+ $X2=1.11 $Y2=2.865
r204 61 74 6.85207 $w=1.85e-07 $l=1.44187e-07 $layer=LI1_cond $X=1.11 $Y=1.945
+ $X2=1.215 $Y2=1.852
r205 61 63 4.22511 $w=2.08e-07 $l=8e-08 $layer=LI1_cond $X=1.11 $Y=1.945
+ $X2=1.11 $Y2=2.025
r206 57 113 21.2229 $w=1.5e-07 $l=1.65e-07 $layer=POLY_cond $X=5.125 $Y=1.645
+ $X2=5.125 $Y2=1.48
r207 57 59 420.468 $w=1.5e-07 $l=8.2e-07 $layer=POLY_cond $X=5.125 $Y=1.645
+ $X2=5.125 $Y2=2.465
r208 53 113 21.2229 $w=1.5e-07 $l=1.65e-07 $layer=POLY_cond $X=5.125 $Y=1.315
+ $X2=5.125 $Y2=1.48
r209 53 55 338.426 $w=1.5e-07 $l=6.6e-07 $layer=POLY_cond $X=5.125 $Y=1.315
+ $X2=5.125 $Y2=0.655
r210 49 111 21.2229 $w=1.5e-07 $l=1.65e-07 $layer=POLY_cond $X=4.695 $Y=1.645
+ $X2=4.695 $Y2=1.48
r211 49 51 420.468 $w=1.5e-07 $l=8.2e-07 $layer=POLY_cond $X=4.695 $Y=1.645
+ $X2=4.695 $Y2=2.465
r212 45 111 21.2229 $w=1.5e-07 $l=1.65e-07 $layer=POLY_cond $X=4.695 $Y=1.315
+ $X2=4.695 $Y2=1.48
r213 45 47 338.426 $w=1.5e-07 $l=6.6e-07 $layer=POLY_cond $X=4.695 $Y=1.315
+ $X2=4.695 $Y2=0.655
r214 41 110 21.2229 $w=1.5e-07 $l=1.65e-07 $layer=POLY_cond $X=4.265 $Y=1.645
+ $X2=4.265 $Y2=1.48
r215 41 43 420.468 $w=1.5e-07 $l=8.2e-07 $layer=POLY_cond $X=4.265 $Y=1.645
+ $X2=4.265 $Y2=2.465
r216 37 110 21.2229 $w=1.5e-07 $l=1.65e-07 $layer=POLY_cond $X=4.265 $Y=1.315
+ $X2=4.265 $Y2=1.48
r217 37 39 338.426 $w=1.5e-07 $l=6.6e-07 $layer=POLY_cond $X=4.265 $Y=1.315
+ $X2=4.265 $Y2=0.655
r218 33 109 21.2229 $w=1.5e-07 $l=1.65e-07 $layer=POLY_cond $X=3.835 $Y=1.645
+ $X2=3.835 $Y2=1.48
r219 33 35 420.468 $w=1.5e-07 $l=8.2e-07 $layer=POLY_cond $X=3.835 $Y=1.645
+ $X2=3.835 $Y2=2.465
r220 29 109 21.2229 $w=1.5e-07 $l=1.65e-07 $layer=POLY_cond $X=3.835 $Y=1.315
+ $X2=3.835 $Y2=1.48
r221 29 31 338.426 $w=1.5e-07 $l=6.6e-07 $layer=POLY_cond $X=3.835 $Y=1.315
+ $X2=3.835 $Y2=0.655
r222 25 108 21.2229 $w=1.5e-07 $l=1.65e-07 $layer=POLY_cond $X=3.405 $Y=1.645
+ $X2=3.405 $Y2=1.48
r223 25 27 420.468 $w=1.5e-07 $l=8.2e-07 $layer=POLY_cond $X=3.405 $Y=1.645
+ $X2=3.405 $Y2=2.465
r224 21 108 21.2229 $w=1.5e-07 $l=1.65e-07 $layer=POLY_cond $X=3.405 $Y=1.315
+ $X2=3.405 $Y2=1.48
r225 21 23 338.426 $w=1.5e-07 $l=6.6e-07 $layer=POLY_cond $X=3.405 $Y=1.315
+ $X2=3.405 $Y2=0.655
r226 17 107 21.2229 $w=1.5e-07 $l=1.65e-07 $layer=POLY_cond $X=2.975 $Y=1.645
+ $X2=2.975 $Y2=1.48
r227 17 19 420.468 $w=1.5e-07 $l=8.2e-07 $layer=POLY_cond $X=2.975 $Y=1.645
+ $X2=2.975 $Y2=2.465
r228 13 107 21.2229 $w=1.5e-07 $l=1.65e-07 $layer=POLY_cond $X=2.975 $Y=1.315
+ $X2=2.975 $Y2=1.48
r229 13 15 338.426 $w=1.5e-07 $l=6.6e-07 $layer=POLY_cond $X=2.975 $Y=1.315
+ $X2=2.975 $Y2=0.655
r230 4 83 400 $w=1.7e-07 $l=1.09777e-06 $layer=licon1_PDIFF $count=1 $X=1.84
+ $Y=1.835 $X2=1.98 $Y2=2.865
r231 4 81 400 $w=1.7e-07 $l=2.504e-07 $layer=licon1_PDIFF $count=1 $X=1.84
+ $Y=1.835 $X2=1.98 $Y2=2.025
r232 3 65 400 $w=1.7e-07 $l=1.09777e-06 $layer=licon1_PDIFF $count=1 $X=0.98
+ $Y=1.835 $X2=1.12 $Y2=2.865
r233 3 63 400 $w=1.7e-07 $l=2.504e-07 $layer=licon1_PDIFF $count=1 $X=0.98
+ $Y=1.835 $X2=1.12 $Y2=2.025
r234 2 77 91 $w=1.7e-07 $l=2.34787e-07 $layer=licon1_NDIFF $count=2 $X=1.84
+ $Y=0.245 $X2=1.98 $Y2=0.42
r235 1 69 91 $w=1.7e-07 $l=2.34787e-07 $layer=licon1_NDIFF $count=2 $X=0.98
+ $Y=0.245 $X2=1.12 $Y2=0.42
.ends

.subckt PM_SKY130_FD_SC_LP__BUFBUF_16%A_610_47# 1 2 3 4 5 6 21 25 29 33 37 41 45
+ 49 53 57 61 65 69 73 77 81 85 89 93 97 101 105 109 113 117 121 125 129 133 137
+ 141 145 149 153 157 158 159 160 163 167 171 173 177 181 185 187 189 190 191
+ 192 197 218 226 231 236 241 246 251 256 258
c382 258 0 1.58852e-19 $X=12.005 $Y=1.48
c383 187 0 1.55749e-19 $X=5.305 $Y=1.835
r384 257 258 75.1904 $w=3.3e-07 $l=4.3e-07 $layer=POLY_cond $X=11.575 $Y=1.48
+ $X2=12.005 $Y2=1.48
r385 255 257 37.5952 $w=3.3e-07 $l=2.15e-07 $layer=POLY_cond $X=11.36 $Y=1.48
+ $X2=11.575 $Y2=1.48
r386 255 256 145.28 $w=1.7e-07 $l=1.7e-07 $layer=licon1_POLY $count=1 $X=11.36
+ $Y=1.48 $X2=11.36 $Y2=1.48
r387 253 255 37.5952 $w=3.3e-07 $l=2.15e-07 $layer=POLY_cond $X=11.145 $Y=1.48
+ $X2=11.36 $Y2=1.48
r388 252 253 75.1904 $w=3.3e-07 $l=4.3e-07 $layer=POLY_cond $X=10.715 $Y=1.48
+ $X2=11.145 $Y2=1.48
r389 250 252 37.5952 $w=3.3e-07 $l=2.15e-07 $layer=POLY_cond $X=10.5 $Y=1.48
+ $X2=10.715 $Y2=1.48
r390 250 251 145.28 $w=1.7e-07 $l=1.7e-07 $layer=licon1_POLY $count=1 $X=10.5
+ $Y=1.48 $X2=10.5 $Y2=1.48
r391 248 250 37.5952 $w=3.3e-07 $l=2.15e-07 $layer=POLY_cond $X=10.285 $Y=1.48
+ $X2=10.5 $Y2=1.48
r392 247 248 75.1904 $w=3.3e-07 $l=4.3e-07 $layer=POLY_cond $X=9.855 $Y=1.48
+ $X2=10.285 $Y2=1.48
r393 245 247 37.5952 $w=3.3e-07 $l=2.15e-07 $layer=POLY_cond $X=9.64 $Y=1.48
+ $X2=9.855 $Y2=1.48
r394 245 246 145.28 $w=1.7e-07 $l=1.7e-07 $layer=licon1_POLY $count=1 $X=9.64
+ $Y=1.48 $X2=9.64 $Y2=1.48
r395 243 245 37.5952 $w=3.3e-07 $l=2.15e-07 $layer=POLY_cond $X=9.425 $Y=1.48
+ $X2=9.64 $Y2=1.48
r396 242 243 75.1904 $w=3.3e-07 $l=4.3e-07 $layer=POLY_cond $X=8.995 $Y=1.48
+ $X2=9.425 $Y2=1.48
r397 240 242 37.5952 $w=3.3e-07 $l=2.15e-07 $layer=POLY_cond $X=8.78 $Y=1.48
+ $X2=8.995 $Y2=1.48
r398 240 241 145.28 $w=1.7e-07 $l=1.7e-07 $layer=licon1_POLY $count=1 $X=8.78
+ $Y=1.48 $X2=8.78 $Y2=1.48
r399 238 240 37.5952 $w=3.3e-07 $l=2.15e-07 $layer=POLY_cond $X=8.565 $Y=1.48
+ $X2=8.78 $Y2=1.48
r400 237 238 75.1904 $w=3.3e-07 $l=4.3e-07 $layer=POLY_cond $X=8.135 $Y=1.48
+ $X2=8.565 $Y2=1.48
r401 235 237 37.5952 $w=3.3e-07 $l=2.15e-07 $layer=POLY_cond $X=7.92 $Y=1.48
+ $X2=8.135 $Y2=1.48
r402 235 236 145.28 $w=1.7e-07 $l=1.7e-07 $layer=licon1_POLY $count=1 $X=7.92
+ $Y=1.48 $X2=7.92 $Y2=1.48
r403 233 235 37.5952 $w=3.3e-07 $l=2.15e-07 $layer=POLY_cond $X=7.705 $Y=1.48
+ $X2=7.92 $Y2=1.48
r404 232 233 75.1904 $w=3.3e-07 $l=4.3e-07 $layer=POLY_cond $X=7.275 $Y=1.48
+ $X2=7.705 $Y2=1.48
r405 230 232 37.5952 $w=3.3e-07 $l=2.15e-07 $layer=POLY_cond $X=7.06 $Y=1.48
+ $X2=7.275 $Y2=1.48
r406 230 231 145.28 $w=1.7e-07 $l=1.7e-07 $layer=licon1_POLY $count=1 $X=7.06
+ $Y=1.48 $X2=7.06 $Y2=1.48
r407 228 230 37.5952 $w=3.3e-07 $l=2.15e-07 $layer=POLY_cond $X=6.845 $Y=1.48
+ $X2=7.06 $Y2=1.48
r408 227 228 75.1904 $w=3.3e-07 $l=4.3e-07 $layer=POLY_cond $X=6.415 $Y=1.48
+ $X2=6.845 $Y2=1.48
r409 225 227 37.5952 $w=3.3e-07 $l=2.15e-07 $layer=POLY_cond $X=6.2 $Y=1.48
+ $X2=6.415 $Y2=1.48
r410 225 226 145.28 $w=1.7e-07 $l=1.7e-07 $layer=licon1_POLY $count=1 $X=6.2
+ $Y=1.48 $X2=6.2 $Y2=1.48
r411 223 225 37.5952 $w=3.3e-07 $l=2.15e-07 $layer=POLY_cond $X=5.985 $Y=1.48
+ $X2=6.2 $Y2=1.48
r412 221 223 75.1904 $w=3.3e-07 $l=4.3e-07 $layer=POLY_cond $X=5.555 $Y=1.48
+ $X2=5.985 $Y2=1.48
r413 219 256 8.20008 $w=2.58e-07 $l=1.85e-07 $layer=LI1_cond $X=11.36 $Y=1.665
+ $X2=11.36 $Y2=1.48
r414 218 219 9.3 $w=1.7e-07 $l=1.7e-07 $layer=mcon $count=1 $X=11.36 $Y=1.665
+ $X2=11.36 $Y2=1.665
r415 216 251 8.20008 $w=2.58e-07 $l=1.85e-07 $layer=LI1_cond $X=10.5 $Y=1.665
+ $X2=10.5 $Y2=1.48
r416 215 218 0.55178 $w=2.3e-07 $l=8.6e-07 $layer=MET1_cond $X=10.5 $Y=1.665
+ $X2=11.36 $Y2=1.665
r417 215 216 9.3 $w=1.7e-07 $l=1.7e-07 $layer=mcon $count=1 $X=10.5 $Y=1.665
+ $X2=10.5 $Y2=1.665
r418 213 246 8.20008 $w=2.58e-07 $l=1.85e-07 $layer=LI1_cond $X=9.64 $Y=1.665
+ $X2=9.64 $Y2=1.48
r419 212 215 0.55178 $w=2.3e-07 $l=8.6e-07 $layer=MET1_cond $X=9.64 $Y=1.665
+ $X2=10.5 $Y2=1.665
r420 212 213 9.3 $w=1.7e-07 $l=1.7e-07 $layer=mcon $count=1 $X=9.64 $Y=1.665
+ $X2=9.64 $Y2=1.665
r421 210 241 8.20008 $w=2.58e-07 $l=1.85e-07 $layer=LI1_cond $X=8.78 $Y=1.665
+ $X2=8.78 $Y2=1.48
r422 209 212 0.55178 $w=2.3e-07 $l=8.6e-07 $layer=MET1_cond $X=8.78 $Y=1.665
+ $X2=9.64 $Y2=1.665
r423 209 210 9.3 $w=1.7e-07 $l=1.7e-07 $layer=mcon $count=1 $X=8.78 $Y=1.665
+ $X2=8.78 $Y2=1.665
r424 207 236 8.20008 $w=2.58e-07 $l=1.85e-07 $layer=LI1_cond $X=7.92 $Y=1.665
+ $X2=7.92 $Y2=1.48
r425 206 209 0.55178 $w=2.3e-07 $l=8.6e-07 $layer=MET1_cond $X=7.92 $Y=1.665
+ $X2=8.78 $Y2=1.665
r426 206 207 9.3 $w=1.7e-07 $l=1.7e-07 $layer=mcon $count=1 $X=7.92 $Y=1.665
+ $X2=7.92 $Y2=1.665
r427 204 231 8.20008 $w=2.58e-07 $l=1.85e-07 $layer=LI1_cond $X=7.06 $Y=1.665
+ $X2=7.06 $Y2=1.48
r428 203 206 0.55178 $w=2.3e-07 $l=8.6e-07 $layer=MET1_cond $X=7.06 $Y=1.665
+ $X2=7.92 $Y2=1.665
r429 203 204 9.3 $w=1.7e-07 $l=1.7e-07 $layer=mcon $count=1 $X=7.06 $Y=1.665
+ $X2=7.06 $Y2=1.665
r430 201 226 8.20008 $w=2.58e-07 $l=1.85e-07 $layer=LI1_cond $X=6.2 $Y=1.665
+ $X2=6.2 $Y2=1.48
r431 200 203 0.55178 $w=2.3e-07 $l=8.6e-07 $layer=MET1_cond $X=6.2 $Y=1.665
+ $X2=7.06 $Y2=1.665
r432 200 201 9.3 $w=1.7e-07 $l=1.7e-07 $layer=mcon $count=1 $X=6.2 $Y=1.665
+ $X2=6.2 $Y2=1.665
r433 196 200 0.513283 $w=2.3e-07 $l=8e-07 $layer=MET1_cond $X=5.4 $Y=1.665
+ $X2=6.2 $Y2=1.665
r434 196 197 9.3 $w=1.7e-07 $l=1.7e-07 $layer=mcon $count=1 $X=5.4 $Y=1.665
+ $X2=5.4 $Y2=1.665
r435 194 197 4.66986 $w=1.88e-07 $l=8e-08 $layer=LI1_cond $X=5.4 $Y=1.745
+ $X2=5.4 $Y2=1.665
r436 193 197 26.2679 $w=1.88e-07 $l=4.5e-07 $layer=LI1_cond $X=5.4 $Y=1.215
+ $X2=5.4 $Y2=1.665
r437 188 192 6.93267 $w=1.8e-07 $l=1.3e-07 $layer=LI1_cond $X=5.04 $Y=1.835
+ $X2=4.91 $Y2=1.835
r438 187 194 6.82297 $w=1.8e-07 $l=1.32571e-07 $layer=LI1_cond $X=5.305 $Y=1.835
+ $X2=5.4 $Y2=1.745
r439 187 188 16.3283 $w=1.78e-07 $l=2.65e-07 $layer=LI1_cond $X=5.305 $Y=1.835
+ $X2=5.04 $Y2=1.835
r440 186 191 7.24004 $w=1.7e-07 $l=1.3e-07 $layer=LI1_cond $X=5.04 $Y=1.13
+ $X2=4.91 $Y2=1.13
r441 185 193 6.84389 $w=1.7e-07 $l=1.30767e-07 $layer=LI1_cond $X=5.305 $Y=1.13
+ $X2=5.4 $Y2=1.215
r442 185 186 17.2888 $w=1.68e-07 $l=2.65e-07 $layer=LI1_cond $X=5.305 $Y=1.13
+ $X2=5.04 $Y2=1.13
r443 181 183 37.2328 $w=2.58e-07 $l=8.4e-07 $layer=LI1_cond $X=4.91 $Y=2.045
+ $X2=4.91 $Y2=2.885
r444 179 192 0.0585112 $w=2.6e-07 $l=9e-08 $layer=LI1_cond $X=4.91 $Y=1.925
+ $X2=4.91 $Y2=1.835
r445 179 181 5.31897 $w=2.58e-07 $l=1.2e-07 $layer=LI1_cond $X=4.91 $Y=1.925
+ $X2=4.91 $Y2=2.045
r446 175 191 0.132371 $w=2.6e-07 $l=8.5e-08 $layer=LI1_cond $X=4.91 $Y=1.045
+ $X2=4.91 $Y2=1.13
r447 175 177 26.3732 $w=2.58e-07 $l=5.95e-07 $layer=LI1_cond $X=4.91 $Y=1.045
+ $X2=4.91 $Y2=0.45
r448 174 190 6.93267 $w=1.8e-07 $l=1.3e-07 $layer=LI1_cond $X=4.18 $Y=1.835
+ $X2=4.05 $Y2=1.835
r449 173 192 6.93267 $w=1.8e-07 $l=1.3e-07 $layer=LI1_cond $X=4.78 $Y=1.835
+ $X2=4.91 $Y2=1.835
r450 173 174 36.9697 $w=1.78e-07 $l=6e-07 $layer=LI1_cond $X=4.78 $Y=1.835
+ $X2=4.18 $Y2=1.835
r451 172 189 7.24004 $w=1.7e-07 $l=1.3e-07 $layer=LI1_cond $X=4.18 $Y=1.13
+ $X2=4.05 $Y2=1.13
r452 171 191 7.24004 $w=1.7e-07 $l=1.3e-07 $layer=LI1_cond $X=4.78 $Y=1.13
+ $X2=4.91 $Y2=1.13
r453 171 172 39.1444 $w=1.68e-07 $l=6e-07 $layer=LI1_cond $X=4.78 $Y=1.13
+ $X2=4.18 $Y2=1.13
r454 167 169 37.2328 $w=2.58e-07 $l=8.4e-07 $layer=LI1_cond $X=4.05 $Y=2.045
+ $X2=4.05 $Y2=2.885
r455 165 190 0.0585112 $w=2.6e-07 $l=9e-08 $layer=LI1_cond $X=4.05 $Y=1.925
+ $X2=4.05 $Y2=1.835
r456 165 167 5.31897 $w=2.58e-07 $l=1.2e-07 $layer=LI1_cond $X=4.05 $Y=1.925
+ $X2=4.05 $Y2=2.045
r457 161 189 0.132371 $w=2.6e-07 $l=8.5e-08 $layer=LI1_cond $X=4.05 $Y=1.045
+ $X2=4.05 $Y2=1.13
r458 161 163 26.3732 $w=2.58e-07 $l=5.95e-07 $layer=LI1_cond $X=4.05 $Y=1.045
+ $X2=4.05 $Y2=0.45
r459 159 190 6.93267 $w=1.8e-07 $l=1.3e-07 $layer=LI1_cond $X=3.92 $Y=1.835
+ $X2=4.05 $Y2=1.835
r460 159 160 36.9697 $w=1.78e-07 $l=6e-07 $layer=LI1_cond $X=3.92 $Y=1.835
+ $X2=3.32 $Y2=1.835
r461 157 189 7.24004 $w=1.7e-07 $l=1.3e-07 $layer=LI1_cond $X=3.92 $Y=1.13
+ $X2=4.05 $Y2=1.13
r462 157 158 41.4278 $w=1.68e-07 $l=6.35e-07 $layer=LI1_cond $X=3.92 $Y=1.13
+ $X2=3.285 $Y2=1.13
r463 153 155 43.0245 $w=2.23e-07 $l=8.4e-07 $layer=LI1_cond $X=3.207 $Y=2.045
+ $X2=3.207 $Y2=2.885
r464 151 160 6.92652 $w=1.8e-07 $l=1.51456e-07 $layer=LI1_cond $X=3.207 $Y=1.925
+ $X2=3.32 $Y2=1.835
r465 151 153 6.14636 $w=2.23e-07 $l=1.2e-07 $layer=LI1_cond $X=3.207 $Y=1.925
+ $X2=3.207 $Y2=2.045
r466 147 158 7.01789 $w=1.7e-07 $l=1.51658e-07 $layer=LI1_cond $X=3.17 $Y=1.045
+ $X2=3.285 $Y2=1.13
r467 147 149 29.8132 $w=2.28e-07 $l=5.95e-07 $layer=LI1_cond $X=3.17 $Y=1.045
+ $X2=3.17 $Y2=0.45
r468 143 258 21.2229 $w=1.5e-07 $l=1.65e-07 $layer=POLY_cond $X=12.005 $Y=1.645
+ $X2=12.005 $Y2=1.48
r469 143 145 420.468 $w=1.5e-07 $l=8.2e-07 $layer=POLY_cond $X=12.005 $Y=1.645
+ $X2=12.005 $Y2=2.465
r470 139 258 21.2229 $w=1.5e-07 $l=1.65e-07 $layer=POLY_cond $X=12.005 $Y=1.315
+ $X2=12.005 $Y2=1.48
r471 139 141 338.426 $w=1.5e-07 $l=6.6e-07 $layer=POLY_cond $X=12.005 $Y=1.315
+ $X2=12.005 $Y2=0.655
r472 135 257 21.2229 $w=1.5e-07 $l=1.65e-07 $layer=POLY_cond $X=11.575 $Y=1.645
+ $X2=11.575 $Y2=1.48
r473 135 137 420.468 $w=1.5e-07 $l=8.2e-07 $layer=POLY_cond $X=11.575 $Y=1.645
+ $X2=11.575 $Y2=2.465
r474 131 257 21.2229 $w=1.5e-07 $l=1.65e-07 $layer=POLY_cond $X=11.575 $Y=1.315
+ $X2=11.575 $Y2=1.48
r475 131 133 338.426 $w=1.5e-07 $l=6.6e-07 $layer=POLY_cond $X=11.575 $Y=1.315
+ $X2=11.575 $Y2=0.655
r476 127 253 21.2229 $w=1.5e-07 $l=1.65e-07 $layer=POLY_cond $X=11.145 $Y=1.645
+ $X2=11.145 $Y2=1.48
r477 127 129 420.468 $w=1.5e-07 $l=8.2e-07 $layer=POLY_cond $X=11.145 $Y=1.645
+ $X2=11.145 $Y2=2.465
r478 123 253 21.2229 $w=1.5e-07 $l=1.65e-07 $layer=POLY_cond $X=11.145 $Y=1.315
+ $X2=11.145 $Y2=1.48
r479 123 125 338.426 $w=1.5e-07 $l=6.6e-07 $layer=POLY_cond $X=11.145 $Y=1.315
+ $X2=11.145 $Y2=0.655
r480 119 252 21.2229 $w=1.5e-07 $l=1.65e-07 $layer=POLY_cond $X=10.715 $Y=1.645
+ $X2=10.715 $Y2=1.48
r481 119 121 420.468 $w=1.5e-07 $l=8.2e-07 $layer=POLY_cond $X=10.715 $Y=1.645
+ $X2=10.715 $Y2=2.465
r482 115 252 21.2229 $w=1.5e-07 $l=1.65e-07 $layer=POLY_cond $X=10.715 $Y=1.315
+ $X2=10.715 $Y2=1.48
r483 115 117 338.426 $w=1.5e-07 $l=6.6e-07 $layer=POLY_cond $X=10.715 $Y=1.315
+ $X2=10.715 $Y2=0.655
r484 111 248 21.2229 $w=1.5e-07 $l=1.65e-07 $layer=POLY_cond $X=10.285 $Y=1.645
+ $X2=10.285 $Y2=1.48
r485 111 113 420.468 $w=1.5e-07 $l=8.2e-07 $layer=POLY_cond $X=10.285 $Y=1.645
+ $X2=10.285 $Y2=2.465
r486 107 248 21.2229 $w=1.5e-07 $l=1.65e-07 $layer=POLY_cond $X=10.285 $Y=1.315
+ $X2=10.285 $Y2=1.48
r487 107 109 338.426 $w=1.5e-07 $l=6.6e-07 $layer=POLY_cond $X=10.285 $Y=1.315
+ $X2=10.285 $Y2=0.655
r488 103 247 21.2229 $w=1.5e-07 $l=1.65e-07 $layer=POLY_cond $X=9.855 $Y=1.645
+ $X2=9.855 $Y2=1.48
r489 103 105 420.468 $w=1.5e-07 $l=8.2e-07 $layer=POLY_cond $X=9.855 $Y=1.645
+ $X2=9.855 $Y2=2.465
r490 99 247 21.2229 $w=1.5e-07 $l=1.65e-07 $layer=POLY_cond $X=9.855 $Y=1.315
+ $X2=9.855 $Y2=1.48
r491 99 101 338.426 $w=1.5e-07 $l=6.6e-07 $layer=POLY_cond $X=9.855 $Y=1.315
+ $X2=9.855 $Y2=0.655
r492 95 243 21.2229 $w=1.5e-07 $l=1.65e-07 $layer=POLY_cond $X=9.425 $Y=1.645
+ $X2=9.425 $Y2=1.48
r493 95 97 420.468 $w=1.5e-07 $l=8.2e-07 $layer=POLY_cond $X=9.425 $Y=1.645
+ $X2=9.425 $Y2=2.465
r494 91 243 21.2229 $w=1.5e-07 $l=1.65e-07 $layer=POLY_cond $X=9.425 $Y=1.315
+ $X2=9.425 $Y2=1.48
r495 91 93 338.426 $w=1.5e-07 $l=6.6e-07 $layer=POLY_cond $X=9.425 $Y=1.315
+ $X2=9.425 $Y2=0.655
r496 87 242 21.2229 $w=1.5e-07 $l=1.65e-07 $layer=POLY_cond $X=8.995 $Y=1.645
+ $X2=8.995 $Y2=1.48
r497 87 89 420.468 $w=1.5e-07 $l=8.2e-07 $layer=POLY_cond $X=8.995 $Y=1.645
+ $X2=8.995 $Y2=2.465
r498 83 242 21.2229 $w=1.5e-07 $l=1.65e-07 $layer=POLY_cond $X=8.995 $Y=1.315
+ $X2=8.995 $Y2=1.48
r499 83 85 338.426 $w=1.5e-07 $l=6.6e-07 $layer=POLY_cond $X=8.995 $Y=1.315
+ $X2=8.995 $Y2=0.655
r500 79 238 21.2229 $w=1.5e-07 $l=1.65e-07 $layer=POLY_cond $X=8.565 $Y=1.645
+ $X2=8.565 $Y2=1.48
r501 79 81 420.468 $w=1.5e-07 $l=8.2e-07 $layer=POLY_cond $X=8.565 $Y=1.645
+ $X2=8.565 $Y2=2.465
r502 75 238 21.2229 $w=1.5e-07 $l=1.65e-07 $layer=POLY_cond $X=8.565 $Y=1.315
+ $X2=8.565 $Y2=1.48
r503 75 77 338.426 $w=1.5e-07 $l=6.6e-07 $layer=POLY_cond $X=8.565 $Y=1.315
+ $X2=8.565 $Y2=0.655
r504 71 237 21.2229 $w=1.5e-07 $l=1.65e-07 $layer=POLY_cond $X=8.135 $Y=1.645
+ $X2=8.135 $Y2=1.48
r505 71 73 420.468 $w=1.5e-07 $l=8.2e-07 $layer=POLY_cond $X=8.135 $Y=1.645
+ $X2=8.135 $Y2=2.465
r506 67 237 21.2229 $w=1.5e-07 $l=1.65e-07 $layer=POLY_cond $X=8.135 $Y=1.315
+ $X2=8.135 $Y2=1.48
r507 67 69 338.426 $w=1.5e-07 $l=6.6e-07 $layer=POLY_cond $X=8.135 $Y=1.315
+ $X2=8.135 $Y2=0.655
r508 63 233 21.2229 $w=1.5e-07 $l=1.65e-07 $layer=POLY_cond $X=7.705 $Y=1.645
+ $X2=7.705 $Y2=1.48
r509 63 65 420.468 $w=1.5e-07 $l=8.2e-07 $layer=POLY_cond $X=7.705 $Y=1.645
+ $X2=7.705 $Y2=2.465
r510 59 233 21.2229 $w=1.5e-07 $l=1.65e-07 $layer=POLY_cond $X=7.705 $Y=1.315
+ $X2=7.705 $Y2=1.48
r511 59 61 338.426 $w=1.5e-07 $l=6.6e-07 $layer=POLY_cond $X=7.705 $Y=1.315
+ $X2=7.705 $Y2=0.655
r512 55 232 21.2229 $w=1.5e-07 $l=1.65e-07 $layer=POLY_cond $X=7.275 $Y=1.645
+ $X2=7.275 $Y2=1.48
r513 55 57 420.468 $w=1.5e-07 $l=8.2e-07 $layer=POLY_cond $X=7.275 $Y=1.645
+ $X2=7.275 $Y2=2.465
r514 51 232 21.2229 $w=1.5e-07 $l=1.65e-07 $layer=POLY_cond $X=7.275 $Y=1.315
+ $X2=7.275 $Y2=1.48
r515 51 53 338.426 $w=1.5e-07 $l=6.6e-07 $layer=POLY_cond $X=7.275 $Y=1.315
+ $X2=7.275 $Y2=0.655
r516 47 228 21.2229 $w=1.5e-07 $l=1.65e-07 $layer=POLY_cond $X=6.845 $Y=1.645
+ $X2=6.845 $Y2=1.48
r517 47 49 420.468 $w=1.5e-07 $l=8.2e-07 $layer=POLY_cond $X=6.845 $Y=1.645
+ $X2=6.845 $Y2=2.465
r518 43 228 21.2229 $w=1.5e-07 $l=1.65e-07 $layer=POLY_cond $X=6.845 $Y=1.315
+ $X2=6.845 $Y2=1.48
r519 43 45 338.426 $w=1.5e-07 $l=6.6e-07 $layer=POLY_cond $X=6.845 $Y=1.315
+ $X2=6.845 $Y2=0.655
r520 39 227 21.2229 $w=1.5e-07 $l=1.65e-07 $layer=POLY_cond $X=6.415 $Y=1.645
+ $X2=6.415 $Y2=1.48
r521 39 41 420.468 $w=1.5e-07 $l=8.2e-07 $layer=POLY_cond $X=6.415 $Y=1.645
+ $X2=6.415 $Y2=2.465
r522 35 227 21.2229 $w=1.5e-07 $l=1.65e-07 $layer=POLY_cond $X=6.415 $Y=1.315
+ $X2=6.415 $Y2=1.48
r523 35 37 338.426 $w=1.5e-07 $l=6.6e-07 $layer=POLY_cond $X=6.415 $Y=1.315
+ $X2=6.415 $Y2=0.655
r524 31 223 21.2229 $w=1.5e-07 $l=1.65e-07 $layer=POLY_cond $X=5.985 $Y=1.645
+ $X2=5.985 $Y2=1.48
r525 31 33 420.468 $w=1.5e-07 $l=8.2e-07 $layer=POLY_cond $X=5.985 $Y=1.645
+ $X2=5.985 $Y2=2.465
r526 27 223 21.2229 $w=1.5e-07 $l=1.65e-07 $layer=POLY_cond $X=5.985 $Y=1.315
+ $X2=5.985 $Y2=1.48
r527 27 29 338.426 $w=1.5e-07 $l=6.6e-07 $layer=POLY_cond $X=5.985 $Y=1.315
+ $X2=5.985 $Y2=0.655
r528 23 221 21.2229 $w=1.5e-07 $l=1.65e-07 $layer=POLY_cond $X=5.555 $Y=1.645
+ $X2=5.555 $Y2=1.48
r529 23 25 420.468 $w=1.5e-07 $l=8.2e-07 $layer=POLY_cond $X=5.555 $Y=1.645
+ $X2=5.555 $Y2=2.465
r530 19 221 21.2229 $w=1.5e-07 $l=1.65e-07 $layer=POLY_cond $X=5.555 $Y=1.315
+ $X2=5.555 $Y2=1.48
r531 19 21 338.426 $w=1.5e-07 $l=6.6e-07 $layer=POLY_cond $X=5.555 $Y=1.315
+ $X2=5.555 $Y2=0.655
r532 6 183 400 $w=1.7e-07 $l=1.11781e-06 $layer=licon1_PDIFF $count=1 $X=4.77
+ $Y=1.835 $X2=4.91 $Y2=2.885
r533 6 181 400 $w=1.7e-07 $l=2.71109e-07 $layer=licon1_PDIFF $count=1 $X=4.77
+ $Y=1.835 $X2=4.91 $Y2=2.045
r534 5 169 400 $w=1.7e-07 $l=1.11781e-06 $layer=licon1_PDIFF $count=1 $X=3.91
+ $Y=1.835 $X2=4.05 $Y2=2.885
r535 5 167 400 $w=1.7e-07 $l=2.71109e-07 $layer=licon1_PDIFF $count=1 $X=3.91
+ $Y=1.835 $X2=4.05 $Y2=2.045
r536 4 155 400 $w=1.7e-07 $l=1.11781e-06 $layer=licon1_PDIFF $count=1 $X=3.05
+ $Y=1.835 $X2=3.19 $Y2=2.885
r537 4 153 400 $w=1.7e-07 $l=2.71109e-07 $layer=licon1_PDIFF $count=1 $X=3.05
+ $Y=1.835 $X2=3.19 $Y2=2.045
r538 3 177 91 $w=1.7e-07 $l=2.7627e-07 $layer=licon1_NDIFF $count=2 $X=4.77
+ $Y=0.235 $X2=4.91 $Y2=0.45
r539 2 163 91 $w=1.7e-07 $l=2.7627e-07 $layer=licon1_NDIFF $count=2 $X=3.91
+ $Y=0.235 $X2=4.05 $Y2=0.45
r540 1 149 91 $w=1.7e-07 $l=2.7627e-07 $layer=licon1_NDIFF $count=2 $X=3.05
+ $Y=0.235 $X2=3.19 $Y2=0.45
.ends

.subckt PM_SKY130_FD_SC_LP__BUFBUF_16%VPWR 1 2 3 4 5 6 7 8 9 10 11 12 13 14 45
+ 49 53 57 63 69 75 81 85 89 95 101 107 113 117 121 125 127 132 133 135 136 137
+ 138 140 141 143 144 145 146 147 149 154 159 174 189 195 198 201 204 207 210
+ 213 217
r233 216 217 9.3 $w=1.7e-07 $l=1.7e-07 $layer=mcon $count=1 $X=12.24 $Y=3.33
+ $X2=12.24 $Y2=3.33
r234 213 214 4.65 $w=1.7e-07 $l=3.4e-07 $layer=mcon $count=2 $X=11.28 $Y=3.33
+ $X2=11.28 $Y2=3.33
r235 210 211 9.3 $w=1.7e-07 $l=1.7e-07 $layer=mcon $count=1 $X=7.92 $Y=3.33
+ $X2=7.92 $Y2=3.33
r236 207 208 4.65 $w=1.7e-07 $l=3.4e-07 $layer=mcon $count=2 $X=6.96 $Y=3.33
+ $X2=6.96 $Y2=3.33
r237 204 205 9.3 $w=1.7e-07 $l=1.7e-07 $layer=mcon $count=1 $X=3.6 $Y=3.33
+ $X2=3.6 $Y2=3.33
r238 201 202 6.2 $w=1.7e-07 $l=2.55e-07 $layer=mcon $count=1 $X=2.64 $Y=3.33
+ $X2=2.64 $Y2=3.33
r239 199 202 0.267585 $w=4.9e-07 $l=9.6e-07 $layer=MET1_cond $X=1.68 $Y=3.33
+ $X2=2.64 $Y2=3.33
r240 198 199 6.2 $w=1.7e-07 $l=2.55e-07 $layer=mcon $count=1 $X=1.68 $Y=3.33
+ $X2=1.68 $Y2=3.33
r241 195 196 9.3 $w=1.7e-07 $l=1.7e-07 $layer=mcon $count=1 $X=0.72 $Y=3.33
+ $X2=0.72 $Y2=3.33
r242 193 217 0.133793 $w=4.9e-07 $l=4.8e-07 $layer=MET1_cond $X=11.76 $Y=3.33
+ $X2=12.24 $Y2=3.33
r243 193 214 0.133793 $w=4.9e-07 $l=4.8e-07 $layer=MET1_cond $X=11.76 $Y=3.33
+ $X2=11.28 $Y2=3.33
r244 192 193 9.3 $w=1.7e-07 $l=1.7e-07 $layer=mcon $count=1 $X=11.76 $Y=3.33
+ $X2=11.76 $Y2=3.33
r245 190 213 7.24004 $w=1.7e-07 $l=1.3e-07 $layer=LI1_cond $X=11.49 $Y=3.33
+ $X2=11.36 $Y2=3.33
r246 190 192 17.615 $w=1.68e-07 $l=2.7e-07 $layer=LI1_cond $X=11.49 $Y=3.33
+ $X2=11.76 $Y2=3.33
r247 189 216 4.44548 $w=1.7e-07 $l=1.95e-07 $layer=LI1_cond $X=12.09 $Y=3.33
+ $X2=12.285 $Y2=3.33
r248 189 192 21.5294 $w=1.68e-07 $l=3.3e-07 $layer=LI1_cond $X=12.09 $Y=3.33
+ $X2=11.76 $Y2=3.33
r249 188 214 0.267585 $w=4.9e-07 $l=9.6e-07 $layer=MET1_cond $X=10.32 $Y=3.33
+ $X2=11.28 $Y2=3.33
r250 187 188 4.65 $w=1.7e-07 $l=3.4e-07 $layer=mcon $count=2 $X=10.32 $Y=3.33
+ $X2=10.32 $Y2=3.33
r251 185 188 0.267585 $w=4.9e-07 $l=9.6e-07 $layer=MET1_cond $X=9.36 $Y=3.33
+ $X2=10.32 $Y2=3.33
r252 184 185 4.65 $w=1.7e-07 $l=3.4e-07 $layer=mcon $count=2 $X=9.36 $Y=3.33
+ $X2=9.36 $Y2=3.33
r253 182 185 0.267585 $w=4.9e-07 $l=9.6e-07 $layer=MET1_cond $X=8.4 $Y=3.33
+ $X2=9.36 $Y2=3.33
r254 182 211 0.133793 $w=4.9e-07 $l=4.8e-07 $layer=MET1_cond $X=8.4 $Y=3.33
+ $X2=7.92 $Y2=3.33
r255 181 182 9.3 $w=1.7e-07 $l=1.7e-07 $layer=mcon $count=1 $X=8.4 $Y=3.33
+ $X2=8.4 $Y2=3.33
r256 179 210 7.24004 $w=1.7e-07 $l=1.3e-07 $layer=LI1_cond $X=8.05 $Y=3.33
+ $X2=7.92 $Y2=3.33
r257 179 181 22.8342 $w=1.68e-07 $l=3.5e-07 $layer=LI1_cond $X=8.05 $Y=3.33