* File: sky130_fd_sc_lp__a311oi_4.pex.spice
* Created: Fri Aug 28 09:58:36 2020
* Program "Calibre xRC"
* Version "v2018.4_34.26"
* Nominal Temperature: 27C
* Circuit Temperature: 27C
* 
.subckt PM_SKY130_FD_SC_LP__A311OI_4%A3 1 3 6 8 10 13 15 17 20 22 24 27 29 30 31
+ 32 49
r80 49 50 10.4783 $w=3.22e-07 $l=7e-08 $layer=POLY_cond $X=1.765 $Y=1.35
+ $X2=1.835 $Y2=1.35
r81 47 49 13.472 $w=3.22e-07 $l=9e-08 $layer=POLY_cond $X=1.675 $Y=1.35
+ $X2=1.765 $Y2=1.35
r82 45 47 40.4161 $w=3.22e-07 $l=2.7e-07 $layer=POLY_cond $X=1.405 $Y=1.35
+ $X2=1.675 $Y2=1.35
r83 44 45 10.4783 $w=3.22e-07 $l=7e-08 $layer=POLY_cond $X=1.335 $Y=1.35
+ $X2=1.405 $Y2=1.35
r84 43 44 53.8882 $w=3.22e-07 $l=3.6e-07 $layer=POLY_cond $X=0.975 $Y=1.35
+ $X2=1.335 $Y2=1.35
r85 42 43 10.4783 $w=3.22e-07 $l=7e-08 $layer=POLY_cond $X=0.905 $Y=1.35
+ $X2=0.975 $Y2=1.35
r86 41 42 53.8882 $w=3.22e-07 $l=3.6e-07 $layer=POLY_cond $X=0.545 $Y=1.35
+ $X2=0.905 $Y2=1.35
r87 40 41 10.4783 $w=3.22e-07 $l=7e-08 $layer=POLY_cond $X=0.475 $Y=1.35
+ $X2=0.545 $Y2=1.35
r88 38 40 23.9503 $w=3.22e-07 $l=1.6e-07 $layer=POLY_cond $X=0.315 $Y=1.35
+ $X2=0.475 $Y2=1.35
r89 32 47 58.112 $w=1.7e-07 $l=4.25e-07 $layer=licon1_POLY $count=2 $X=1.675
+ $Y=1.35 $X2=1.675 $Y2=1.35
r90 31 32 24.3294 $w=2.23e-07 $l=4.75e-07 $layer=LI1_cond $X=1.2 $Y=1.322
+ $X2=1.675 $Y2=1.322
r91 30 31 24.5855 $w=2.23e-07 $l=4.8e-07 $layer=LI1_cond $X=0.72 $Y=1.322
+ $X2=1.2 $Y2=1.322
r92 29 30 24.5855 $w=2.23e-07 $l=4.8e-07 $layer=LI1_cond $X=0.24 $Y=1.322
+ $X2=0.72 $Y2=1.322
r93 29 38 58.112 $w=1.7e-07 $l=4.25e-07 $layer=licon1_POLY $count=2 $X=0.315
+ $Y=1.35 $X2=0.315 $Y2=1.35
r94 25 50 20.6399 $w=1.5e-07 $l=1.65e-07 $layer=POLY_cond $X=1.835 $Y=1.515
+ $X2=1.835 $Y2=1.35
r95 25 27 487.128 $w=1.5e-07 $l=9.5e-07 $layer=POLY_cond $X=1.835 $Y=1.515
+ $X2=1.835 $Y2=2.465
r96 22 49 20.6399 $w=1.5e-07 $l=1.65e-07 $layer=POLY_cond $X=1.765 $Y=1.185
+ $X2=1.765 $Y2=1.35
r97 22 24 170.307 $w=1.5e-07 $l=5.3e-07 $layer=POLY_cond $X=1.765 $Y=1.185
+ $X2=1.765 $Y2=0.655
r98 18 45 20.6399 $w=1.5e-07 $l=1.65e-07 $layer=POLY_cond $X=1.405 $Y=1.515
+ $X2=1.405 $Y2=1.35
r99 18 20 487.128 $w=1.5e-07 $l=9.5e-07 $layer=POLY_cond $X=1.405 $Y=1.515
+ $X2=1.405 $Y2=2.465
r100 15 44 20.6399 $w=1.5e-07 $l=1.65e-07 $layer=POLY_cond $X=1.335 $Y=1.185
+ $X2=1.335 $Y2=1.35
r101 15 17 170.307 $w=1.5e-07 $l=5.3e-07 $layer=POLY_cond $X=1.335 $Y=1.185
+ $X2=1.335 $Y2=0.655
r102 11 43 20.6399 $w=1.5e-07 $l=1.65e-07 $layer=POLY_cond $X=0.975 $Y=1.515
+ $X2=0.975 $Y2=1.35
r103 11 13 487.128 $w=1.5e-07 $l=9.5e-07 $layer=POLY_cond $X=0.975 $Y=1.515
+ $X2=0.975 $Y2=2.465
r104 8 42 20.6399 $w=1.5e-07 $l=1.65e-07 $layer=POLY_cond $X=0.905 $Y=1.185
+ $X2=0.905 $Y2=1.35
r105 8 10 170.307 $w=1.5e-07 $l=5.3e-07 $layer=POLY_cond $X=0.905 $Y=1.185
+ $X2=0.905 $Y2=0.655
r106 4 41 20.6399 $w=1.5e-07 $l=1.65e-07 $layer=POLY_cond $X=0.545 $Y=1.515
+ $X2=0.545 $Y2=1.35
r107 4 6 487.128 $w=1.5e-07 $l=9.5e-07 $layer=POLY_cond $X=0.545 $Y=1.515
+ $X2=0.545 $Y2=2.465
r108 1 40 20.6399 $w=1.5e-07 $l=1.65e-07 $layer=POLY_cond $X=0.475 $Y=1.185
+ $X2=0.475 $Y2=1.35
r109 1 3 170.307 $w=1.5e-07 $l=5.3e-07 $layer=POLY_cond $X=0.475 $Y=1.185
+ $X2=0.475 $Y2=0.655
.ends

.subckt PM_SKY130_FD_SC_LP__A311OI_4%A2 1 3 6 8 10 13 15 17 20 22 24 27 29 30 31
+ 32 50
r87 48 50 15.7375 $w=3.3e-07 $l=9e-08 $layer=POLY_cond $X=3.555 $Y=1.35
+ $X2=3.645 $Y2=1.35
r88 47 48 12.2403 $w=3.3e-07 $l=7e-08 $layer=POLY_cond $X=3.485 $Y=1.35
+ $X2=3.555 $Y2=1.35
r89 46 47 62.9501 $w=3.3e-07 $l=3.6e-07 $layer=POLY_cond $X=3.125 $Y=1.35
+ $X2=3.485 $Y2=1.35
r90 45 46 12.2403 $w=3.3e-07 $l=7e-08 $layer=POLY_cond $X=3.055 $Y=1.35
+ $X2=3.125 $Y2=1.35
r91 44 45 62.9501 $w=3.3e-07 $l=3.6e-07 $layer=POLY_cond $X=2.695 $Y=1.35
+ $X2=3.055 $Y2=1.35
r92 43 44 12.2403 $w=3.3e-07 $l=7e-08 $layer=POLY_cond $X=2.625 $Y=1.35
+ $X2=2.695 $Y2=1.35
r93 41 43 59.4528 $w=3.3e-07 $l=3.4e-07 $layer=POLY_cond $X=2.285 $Y=1.35
+ $X2=2.625 $Y2=1.35
r94 41 42 58.112 $w=1.7e-07 $l=4.25e-07 $layer=licon1_POLY $count=2 $X=2.285
+ $Y=1.35 $X2=2.285 $Y2=1.35
r95 39 41 3.49723 $w=3.3e-07 $l=2e-08 $layer=POLY_cond $X=2.265 $Y=1.35
+ $X2=2.285 $Y2=1.35
r96 37 39 12.2403 $w=3.3e-07 $l=7e-08 $layer=POLY_cond $X=2.195 $Y=1.35
+ $X2=2.265 $Y2=1.35
r97 32 50 58.112 $w=1.7e-07 $l=4.25e-07 $layer=licon1_POLY $count=2 $X=3.645
+ $Y=1.35 $X2=3.645 $Y2=1.35
r98 31 32 24.5855 $w=2.23e-07 $l=4.8e-07 $layer=LI1_cond $X=3.12 $Y=1.322
+ $X2=3.6 $Y2=1.322
r99 30 31 24.5855 $w=2.23e-07 $l=4.8e-07 $layer=LI1_cond $X=2.64 $Y=1.322
+ $X2=3.12 $Y2=1.322
r100 30 42 18.183 $w=2.23e-07 $l=3.55e-07 $layer=LI1_cond $X=2.64 $Y=1.322
+ $X2=2.285 $Y2=1.322
r101 29 42 6.40246 $w=2.23e-07 $l=1.25e-07 $layer=LI1_cond $X=2.16 $Y=1.322
+ $X2=2.285 $Y2=1.322
r102 25 48 21.2229 $w=1.5e-07 $l=1.65e-07 $layer=POLY_cond $X=3.555 $Y=1.515
+ $X2=3.555 $Y2=1.35
r103 25 27 487.128 $w=1.5e-07 $l=9.5e-07 $layer=POLY_cond $X=3.555 $Y=1.515
+ $X2=3.555 $Y2=2.465
r104 22 47 21.2229 $w=1.5e-07 $l=1.65e-07 $layer=POLY_cond $X=3.485 $Y=1.185
+ $X2=3.485 $Y2=1.35
r105 22 24 170.307 $w=1.5e-07 $l=5.3e-07 $layer=POLY_cond $X=3.485 $Y=1.185
+ $X2=3.485 $Y2=0.655
r106 18 46 21.2229 $w=1.5e-07 $l=1.65e-07 $layer=POLY_cond $X=3.125 $Y=1.515
+ $X2=3.125 $Y2=1.35
r107 18 20 487.128 $w=1.5e-07 $l=9.5e-07 $layer=POLY_cond $X=3.125 $Y=1.515
+ $X2=3.125 $Y2=2.465
r108 15 45 21.2229 $w=1.5e-07 $l=1.65e-07 $layer=POLY_cond $X=3.055 $Y=1.185
+ $X2=3.055 $Y2=1.35
r109 15 17 170.307 $w=1.5e-07 $l=5.3e-07 $layer=POLY_cond $X=3.055 $Y=1.185
+ $X2=3.055 $Y2=0.655
r110 11 44 21.2229 $w=1.5e-07 $l=1.65e-07 $layer=POLY_cond $X=2.695 $Y=1.515
+ $X2=2.695 $Y2=1.35
r111 11 13 487.128 $w=1.5e-07 $l=9.5e-07 $layer=POLY_cond $X=2.695 $Y=1.515
+ $X2=2.695 $Y2=2.465
r112 8 43 21.2229 $w=1.5e-07 $l=1.65e-07 $layer=POLY_cond $X=2.625 $Y=1.185
+ $X2=2.625 $Y2=1.35
r113 8 10 170.307 $w=1.5e-07 $l=5.3e-07 $layer=POLY_cond $X=2.625 $Y=1.185
+ $X2=2.625 $Y2=0.655
r114 4 39 21.2229 $w=1.5e-07 $l=1.65e-07 $layer=POLY_cond $X=2.265 $Y=1.515
+ $X2=2.265 $Y2=1.35
r115 4 6 487.128 $w=1.5e-07 $l=9.5e-07 $layer=POLY_cond $X=2.265 $Y=1.515
+ $X2=2.265 $Y2=2.465
r116 1 37 21.2229 $w=1.5e-07 $l=1.65e-07 $layer=POLY_cond $X=2.195 $Y=1.185
+ $X2=2.195 $Y2=1.35
r117 1 3 170.307 $w=1.5e-07 $l=5.3e-07 $layer=POLY_cond $X=2.195 $Y=1.185
+ $X2=2.195 $Y2=0.655
.ends

.subckt PM_SKY130_FD_SC_LP__A311OI_4%A1 3 5 6 7 9 12 14 16 19 21 23 26 28 30 31
+ 32 33 47
c86 33 0 1.95594e-19 $X=5.52 $Y=1.295
c87 6 0 1.70462e-19 $X=4.17 $Y=1.59
r88 45 47 16.2158 $w=4.31e-07 $l=1.45e-07 $layer=POLY_cond $X=5.385 $Y=1.425
+ $X2=5.53 $Y2=1.425
r89 44 45 10.065 $w=4.31e-07 $l=9e-08 $layer=POLY_cond $X=5.295 $Y=1.425
+ $X2=5.385 $Y2=1.425
r90 43 44 38.0232 $w=4.31e-07 $l=3.4e-07 $layer=POLY_cond $X=4.955 $Y=1.425
+ $X2=5.295 $Y2=1.425
r91 42 43 10.065 $w=4.31e-07 $l=9e-08 $layer=POLY_cond $X=4.865 $Y=1.425
+ $X2=4.955 $Y2=1.425
r92 41 42 38.0232 $w=4.31e-07 $l=3.4e-07 $layer=POLY_cond $X=4.525 $Y=1.425
+ $X2=4.865 $Y2=1.425
r93 39 41 1.67749 $w=4.31e-07 $l=1.5e-08 $layer=POLY_cond $X=4.51 $Y=1.425
+ $X2=4.525 $Y2=1.425
r94 37 39 8.38747 $w=4.31e-07 $l=7.5e-08 $layer=POLY_cond $X=4.435 $Y=1.425
+ $X2=4.51 $Y2=1.425
r95 33 47 72.64 $w=1.7e-07 $l=3.4e-07 $layer=licon1_POLY $count=2 $X=5.53
+ $Y=1.35 $X2=5.53 $Y2=1.35
r96 32 33 24.5855 $w=2.23e-07 $l=4.8e-07 $layer=LI1_cond $X=5.04 $Y=1.322
+ $X2=5.52 $Y2=1.322
r97 31 32 27.1464 $w=2.23e-07 $l=5.3e-07 $layer=LI1_cond $X=4.51 $Y=1.322
+ $X2=5.04 $Y2=1.322
r98 31 39 72.64 $w=1.7e-07 $l=3.4e-07 $layer=licon1_POLY $count=2 $X=4.51
+ $Y=1.35 $X2=4.51 $Y2=1.35
r99 28 47 21.8074 $w=4.31e-07 $l=3.2311e-07 $layer=POLY_cond $X=5.725 $Y=1.185
+ $X2=5.53 $Y2=1.425
r100 28 30 170.307 $w=1.5e-07 $l=5.3e-07 $layer=POLY_cond $X=5.725 $Y=1.185
+ $X2=5.725 $Y2=0.655
r101 24 45 27.6969 $w=1.5e-07 $l=2.4e-07 $layer=POLY_cond $X=5.385 $Y=1.665
+ $X2=5.385 $Y2=1.425
r102 24 26 410.213 $w=1.5e-07 $l=8e-07 $layer=POLY_cond $X=5.385 $Y=1.665
+ $X2=5.385 $Y2=2.465
r103 21 44 27.6969 $w=1.5e-07 $l=2.4e-07 $layer=POLY_cond $X=5.295 $Y=1.185
+ $X2=5.295 $Y2=1.425
r104 21 23 170.307 $w=1.5e-07 $l=5.3e-07 $layer=POLY_cond $X=5.295 $Y=1.185
+ $X2=5.295 $Y2=0.655
r105 17 43 27.6969 $w=1.5e-07 $l=2.4e-07 $layer=POLY_cond $X=4.955 $Y=1.665
+ $X2=4.955 $Y2=1.425
r106 17 19 410.213 $w=1.5e-07 $l=8e-07 $layer=POLY_cond $X=4.955 $Y=1.665
+ $X2=4.955 $Y2=2.465
r107 14 42 27.6969 $w=1.5e-07 $l=2.4e-07 $layer=POLY_cond $X=4.865 $Y=1.185
+ $X2=4.865 $Y2=1.425
r108 14 16 170.307 $w=1.5e-07 $l=5.3e-07 $layer=POLY_cond $X=4.865 $Y=1.185
+ $X2=4.865 $Y2=0.655
r109 10 41 27.6969 $w=1.5e-07 $l=2.4e-07 $layer=POLY_cond $X=4.525 $Y=1.665
+ $X2=4.525 $Y2=1.425
r110 10 12 410.213 $w=1.5e-07 $l=8e-07 $layer=POLY_cond $X=4.525 $Y=1.665
+ $X2=4.525 $Y2=2.465
r111 7 37 27.6969 $w=1.5e-07 $l=2.4e-07 $layer=POLY_cond $X=4.435 $Y=1.185
+ $X2=4.435 $Y2=1.425
r112 7 9 170.307 $w=1.5e-07 $l=5.3e-07 $layer=POLY_cond $X=4.435 $Y=1.185
+ $X2=4.435 $Y2=0.655
r113 5 37 31.8532 $w=4.31e-07 $l=2.05122e-07 $layer=POLY_cond $X=4.345 $Y=1.59
+ $X2=4.435 $Y2=1.425
r114 5 6 89.734 $w=1.5e-07 $l=1.75e-07 $layer=POLY_cond $X=4.345 $Y=1.59
+ $X2=4.17 $Y2=1.59
r115 1 6 26.9307 $w=1.5e-07 $l=1.06066e-07 $layer=POLY_cond $X=4.095 $Y=1.665
+ $X2=4.17 $Y2=1.59
r116 1 3 410.213 $w=1.5e-07 $l=8e-07 $layer=POLY_cond $X=4.095 $Y=1.665
+ $X2=4.095 $Y2=2.465
.ends

.subckt PM_SKY130_FD_SC_LP__A311OI_4%B1 1 3 6 8 10 13 15 17 20 22 24 27 29 30 31
+ 32 49 51
c89 51 0 1.95594e-19 $X=7.625 $Y=1.35
r90 50 51 12.2403 $w=3.3e-07 $l=7e-08 $layer=POLY_cond $X=7.555 $Y=1.35
+ $X2=7.625 $Y2=1.35
r91 48 50 3.49723 $w=3.3e-07 $l=2e-08 $layer=POLY_cond $X=7.535 $Y=1.35
+ $X2=7.555 $Y2=1.35
r92 48 49 58.112 $w=1.7e-07 $l=4.25e-07 $layer=licon1_POLY $count=2 $X=7.535
+ $Y=1.35 $X2=7.535 $Y2=1.35
r93 46 48 59.4528 $w=3.3e-07 $l=3.4e-07 $layer=POLY_cond $X=7.195 $Y=1.35
+ $X2=7.535 $Y2=1.35
r94 45 46 29.7264 $w=3.3e-07 $l=1.7e-07 $layer=POLY_cond $X=7.025 $Y=1.35
+ $X2=7.195 $Y2=1.35
r95 44 45 45.4639 $w=3.3e-07 $l=2.6e-07 $layer=POLY_cond $X=6.765 $Y=1.35
+ $X2=7.025 $Y2=1.35
r96 43 44 29.7264 $w=3.3e-07 $l=1.7e-07 $layer=POLY_cond $X=6.595 $Y=1.35
+ $X2=6.765 $Y2=1.35
r97 42 43 45.4639 $w=3.3e-07 $l=2.6e-07 $layer=POLY_cond $X=6.335 $Y=1.35
+ $X2=6.595 $Y2=1.35
r98 40 42 27.9778 $w=3.3e-07 $l=1.6e-07 $layer=POLY_cond $X=6.175 $Y=1.35
+ $X2=6.335 $Y2=1.35
r99 40 41 58.112 $w=1.7e-07 $l=4.25e-07 $layer=licon1_POLY $count=2 $X=6.175
+ $Y=1.35 $X2=6.175 $Y2=1.35
r100 37 40 1.74861 $w=3.3e-07 $l=1e-08 $layer=POLY_cond $X=6.165 $Y=1.35
+ $X2=6.175 $Y2=1.35
r101 32 49 4.86587 $w=2.23e-07 $l=9.5e-08 $layer=LI1_cond $X=7.44 $Y=1.322
+ $X2=7.535 $Y2=1.322
r102 31 32 24.5855 $w=2.23e-07 $l=4.8e-07 $layer=LI1_cond $X=6.96 $Y=1.322
+ $X2=7.44 $Y2=1.322
r103 30 31 24.5855 $w=2.23e-07 $l=4.8e-07 $layer=LI1_cond $X=6.48 $Y=1.322
+ $X2=6.96 $Y2=1.322
r104 30 41 15.622 $w=2.23e-07 $l=3.05e-07 $layer=LI1_cond $X=6.48 $Y=1.322
+ $X2=6.175 $Y2=1.322
r105 29 41 8.96345 $w=2.23e-07 $l=1.75e-07 $layer=LI1_cond $X=6 $Y=1.322
+ $X2=6.175 $Y2=1.322
r106 25 51 21.2229 $w=1.5e-07 $l=1.65e-07 $layer=POLY_cond $X=7.625 $Y=1.515
+ $X2=7.625 $Y2=1.35
r107 25 27 487.128 $w=1.5e-07 $l=9.5e-07 $layer=POLY_cond $X=7.625 $Y=1.515
+ $X2=7.625 $Y2=2.465
r108 22 50 21.2229 $w=1.5e-07 $l=1.65e-07 $layer=POLY_cond $X=7.555 $Y=1.185
+ $X2=7.555 $Y2=1.35
r109 22 24 170.307 $w=1.5e-07 $l=5.3e-07 $layer=POLY_cond $X=7.555 $Y=1.185
+ $X2=7.555 $Y2=0.655
r110 18 46 21.2229 $w=1.5e-07 $l=1.65e-07 $layer=POLY_cond $X=7.195 $Y=1.515
+ $X2=7.195 $Y2=1.35
r111 18 20 487.128 $w=1.5e-07 $l=9.5e-07 $layer=POLY_cond $X=7.195 $Y=1.515
+ $X2=7.195 $Y2=2.465
r112 15 45 21.2229 $w=1.5e-07 $l=1.65e-07 $layer=POLY_cond $X=7.025 $Y=1.185
+ $X2=7.025 $Y2=1.35
r113 15 17 170.307 $w=1.5e-07 $l=5.3e-07 $layer=POLY_cond $X=7.025 $Y=1.185
+ $X2=7.025 $Y2=0.655
r114 11 44 21.2229 $w=1.5e-07 $l=1.65e-07 $layer=POLY_cond $X=6.765 $Y=1.515
+ $X2=6.765 $Y2=1.35
r115 11 13 487.128 $w=1.5e-07 $l=9.5e-07 $layer=POLY_cond $X=6.765 $Y=1.515
+ $X2=6.765 $Y2=2.465
r116 8 43 21.2229 $w=1.5e-07 $l=1.65e-07 $layer=POLY_cond $X=6.595 $Y=1.185
+ $X2=6.595 $Y2=1.35
r117 8 10 170.307 $w=1.5e-07 $l=5.3e-07 $layer=POLY_cond $X=6.595 $Y=1.185
+ $X2=6.595 $Y2=0.655
r118 4 42 21.2229 $w=1.5e-07 $l=1.65e-07 $layer=POLY_cond $X=6.335 $Y=1.515
+ $X2=6.335 $Y2=1.35
r119 4 6 487.128 $w=1.5e-07 $l=9.5e-07 $layer=POLY_cond $X=6.335 $Y=1.515
+ $X2=6.335 $Y2=2.465
r120 1 37 21.2229 $w=1.5e-07 $l=1.65e-07 $layer=POLY_cond $X=6.165 $Y=1.185
+ $X2=6.165 $Y2=1.35
r121 1 3 170.307 $w=1.5e-07 $l=5.3e-07 $layer=POLY_cond $X=6.165 $Y=1.185
+ $X2=6.165 $Y2=0.655
.ends

.subckt PM_SKY130_FD_SC_LP__A311OI_4%C1 1 3 6 8 10 13 15 17 20 22 24 27 29 30 31
+ 32 37 39
r83 52 53 12.2403 $w=3.3e-07 $l=7e-08 $layer=POLY_cond $X=9.275 $Y=1.35
+ $X2=9.345 $Y2=1.35
r84 51 52 62.9501 $w=3.3e-07 $l=3.6e-07 $layer=POLY_cond $X=8.915 $Y=1.35
+ $X2=9.275 $Y2=1.35
r85 50 51 12.2403 $w=3.3e-07 $l=7e-08 $layer=POLY_cond $X=8.845 $Y=1.35
+ $X2=8.915 $Y2=1.35
r86 49 50 62.9501 $w=3.3e-07 $l=3.6e-07 $layer=POLY_cond $X=8.485 $Y=1.35
+ $X2=8.845 $Y2=1.35
r87 48 49 12.2403 $w=3.3e-07 $l=7e-08 $layer=POLY_cond $X=8.415 $Y=1.35
+ $X2=8.485 $Y2=1.35
r88 46 48 59.4528 $w=3.3e-07 $l=3.4e-07 $layer=POLY_cond $X=8.075 $Y=1.35
+ $X2=8.415 $Y2=1.35
r89 46 47 48.4267 $w=1.7e-07 $l=5.1e-07 $layer=licon1_POLY $count=3 $X=8.075
+ $Y=1.35 $X2=8.075 $Y2=1.35
r90 44 46 3.49723 $w=3.3e-07 $l=2e-08 $layer=POLY_cond $X=8.055 $Y=1.35
+ $X2=8.075 $Y2=1.35
r91 42 44 12.2403 $w=3.3e-07 $l=7e-08 $layer=POLY_cond $X=7.985 $Y=1.35
+ $X2=8.055 $Y2=1.35
r92 37 53 13.1146 $w=3.3e-07 $l=7.5e-08 $layer=POLY_cond $X=9.42 $Y=1.35
+ $X2=9.345 $Y2=1.35
r93 37 39 62.0758 $w=3.3e-07 $l=3.55e-07 $layer=POLY_cond $X=9.42 $Y=1.35
+ $X2=9.775 $Y2=1.35
r94 32 39 48.4267 $w=1.7e-07 $l=5.1e-07 $layer=licon1_POLY $count=3 $X=9.775
+ $Y=1.35 $X2=9.775 $Y2=1.35
r95 31 32 21.2562 $w=2.23e-07 $l=4.15e-07 $layer=LI1_cond $X=9.36 $Y=1.322
+ $X2=9.775 $Y2=1.322
r96 30 31 24.5855 $w=2.23e-07 $l=4.8e-07 $layer=LI1_cond $X=8.88 $Y=1.322
+ $X2=9.36 $Y2=1.322
r97 29 30 24.5855 $w=2.23e-07 $l=4.8e-07 $layer=LI1_cond $X=8.4 $Y=1.322
+ $X2=8.88 $Y2=1.322
r98 29 47 16.6464 $w=2.23e-07 $l=3.25e-07 $layer=LI1_cond $X=8.4 $Y=1.322
+ $X2=8.075 $Y2=1.322
r99 25 53 21.2229 $w=1.5e-07 $l=1.65e-07 $layer=POLY_cond $X=9.345 $Y=1.515
+ $X2=9.345 $Y2=1.35
r100 25 27 487.128 $w=1.5e-07 $l=9.5e-07 $layer=POLY_cond $X=9.345 $Y=1.515
+ $X2=9.345 $Y2=2.465
r101 22 52 21.2229 $w=1.5e-07 $l=1.65e-07 $layer=POLY_cond $X=9.275 $Y=1.185
+ $X2=9.275 $Y2=1.35
r102 22 24 170.307 $w=1.5e-07 $l=5.3e-07 $layer=POLY_cond $X=9.275 $Y=1.185
+ $X2=9.275 $Y2=0.655
r103 18 51 21.2229 $w=1.5e-07 $l=1.65e-07 $layer=POLY_cond $X=8.915 $Y=1.515
+ $X2=8.915 $Y2=1.35
r104 18 20 487.128 $w=1.5e-07 $l=9.5e-07 $layer=POLY_cond $X=8.915 $Y=1.515
+ $X2=8.915 $Y2=2.465
r105 15 50 21.2229 $w=1.5e-07 $l=1.65e-07 $layer=POLY_cond $X=8.845 $Y=1.185
+ $X2=8.845 $Y2=1.35
r106 15 17 170.307 $w=1.5e-07 $l=5.3e-07 $layer=POLY_cond $X=8.845 $Y=1.185
+ $X2=8.845 $Y2=0.655
r107 11 49 21.2229 $w=1.5e-07 $l=1.65e-07 $layer=POLY_cond $X=8.485 $Y=1.515
+ $X2=8.485 $Y2=1.35
r108 11 13 487.128 $w=1.5e-07 $l=9.5e-07 $layer=POLY_cond $X=8.485 $Y=1.515
+ $X2=8.485 $Y2=2.465
r109 8 48 21.2229 $w=1.5e-07 $l=1.65e-07 $layer=POLY_cond $X=8.415 $Y=1.185
+ $X2=8.415 $Y2=1.35
r110 8 10 170.307 $w=1.5e-07 $l=5.3e-07 $layer=POLY_cond $X=8.415 $Y=1.185
+ $X2=8.415 $Y2=0.655
r111 4 44 21.2229 $w=1.5e-07 $l=1.65e-07 $layer=POLY_cond $X=8.055 $Y=1.515
+ $X2=8.055 $Y2=1.35
r112 4 6 487.128 $w=1.5e-07 $l=9.5e-07 $layer=POLY_cond $X=8.055 $Y=1.515
+ $X2=8.055 $Y2=2.465
r113 1 42 21.2229 $w=1.5e-07 $l=1.65e-07 $layer=POLY_cond $X=7.985 $Y=1.185
+ $X2=7.985 $Y2=1.35
r114 1 3 170.307 $w=1.5e-07 $l=5.3e-07 $layer=POLY_cond $X=7.985 $Y=1.185
+ $X2=7.985 $Y2=0.655
.ends

.subckt PM_SKY130_FD_SC_LP__A311OI_4%VPWR 1 2 3 4 5 6 7 22 24 30 36 42 48 52 56
+ 59 60 62 63 65 66 68 69 70 72 90 99 100 106 109
r145 109 110 9.3 $w=1.7e-07 $l=1.7e-07 $layer=mcon $count=1 $X=5.52 $Y=3.33
+ $X2=5.52 $Y2=3.33
r146 106 107 9.3 $w=1.7e-07 $l=1.7e-07 $layer=mcon $count=1 $X=1.2 $Y=3.33
+ $X2=1.2 $Y2=3.33
r147 103 104 9.3 $w=1.7e-07 $l=1.7e-07 $layer=mcon $count=1 $X=0.24 $Y=3.33
+ $X2=0.24 $Y2=3.33
r148 99 100 2.06667 $w=1.7e-07 $l=7.65e-07 $layer=mcon $count=4 $X=9.84 $Y=3.33
+ $X2=9.84 $Y2=3.33
r149 97 100 1.07034 $w=4.9e-07 $l=3.84e-06 $layer=MET1_cond $X=6 $Y=3.33
+ $X2=9.84 $Y2=3.33
r150 97 110 0.133793 $w=4.9e-07 $l=4.8e-07 $layer=MET1_cond $X=6 $Y=3.33
+ $X2=5.52 $Y2=3.33
r151 96 99 250.524 $w=1.68e-07 $l=3.84e-06 $layer=LI1_cond $X=6 $Y=3.33 $X2=9.84
+ $Y2=3.33
r152 96 97 2.06667 $w=1.7e-07 $l=7.65e-07 $layer=mcon $count=4 $X=6 $Y=3.33
+ $X2=6 $Y2=3.33
r153 94 109 8.61065 $w=1.7e-07 $l=1.65e-07 $layer=LI1_cond $X=5.765 $Y=3.33
+ $X2=5.6 $Y2=3.33
r154 94 96 15.3316 $w=1.68e-07 $l=2.35e-07 $layer=LI1_cond $X=5.765 $Y=3.33
+ $X2=6 $Y2=3.33
r155 90 109 8.61065 $w=1.7e-07 $l=1.65e-07 $layer=LI1_cond $X=5.435 $Y=3.33
+ $X2=5.6 $Y2=3.33
r156 90 92 25.7701 $w=1.68e-07 $l=3.95e-07 $layer=LI1_cond $X=5.435 $Y=3.33
+ $X2=5.04 $Y2=3.33
r157 88 89 4.65 $w=1.7e-07 $l=3.4e-07 $layer=mcon $count=2 $X=4.56 $Y=3.33
+ $X2=4.56 $Y2=3.33
r158 86 89 0.267585 $w=4.9e-07 $l=9.6e-07 $layer=MET1_cond $X=3.6 $Y=3.33
+ $X2=4.56 $Y2=3.33
r159 85 86 4.65 $w=1.7e-07 $l=3.4e-07 $layer=mcon $count=2 $X=3.6 $Y=3.33
+ $X2=3.6 $Y2=3.33
r160 83 86 0.267585 $w=4.9e-07 $l=9.6e-07 $layer=MET1_cond $X=2.64 $Y=3.33
+ $X2=3.6 $Y2=3.33
r161 82 83 4.65 $w=1.7e-07 $l=3.4e-07 $layer=mcon $count=2 $X=2.64 $Y=3.33
+ $X2=2.64 $Y2=3.33
r162 80 83 0.267585 $w=4.9e-07 $l=9.6e-07 $layer=MET1_cond $X=1.68 $Y=3.33
+ $X2=2.64 $Y2=3.33
r163 80 107 0.133793 $w=4.9e-07 $l=4.8e-07 $layer=MET1_cond $X=1.68 $Y=3.33
+ $X2=1.2 $Y2=3.33
r164 79 80 9.3 $w=1.7e-07 $l=1.7e-07 $layer=mcon $count=1 $X=1.68 $Y=3.33
+ $X2=1.68 $Y2=3.33
r165 77 106 8.61065 $w=1.7e-07 $l=1.65e-07 $layer=LI1_cond $X=1.355 $Y=3.33
+ $X2=1.19 $Y2=3.33
r166 77 79 21.2032 $w=1.68e-07 $l=3.25e-07 $layer=LI1_cond $X=1.355 $Y=3.33
+ $X2=1.68 $Y2=3.33
r167 76 107 0.133793 $w=4.9e-07 $l=4.8e-07 $layer=MET1_cond $X=0.72 $Y=3.33
+ $X2=1.2 $Y2=3.33
r168 76 104 0.133793 $w=4.9e-07 $l=4.8e-07 $layer=MET1_cond $X=0.72 $Y=3.33
+ $X2=0.24 $Y2=3.33
r169 75 76 9.3 $w=1.7e-07 $l=1.7e-07 $layer=mcon $count=1 $X=0.72 $Y=3.33
+ $X2=0.72 $Y2=3.33
r170 73 103 4.62984 $w=1.7e-07 $l=2.48e-07 $layer=LI1_cond $X=0.495 $Y=3.33
+ $X2=0.247 $Y2=3.33
r171 73 75 14.6791 $w=1.68e-07 $l=2.25e-07 $layer=LI1_cond $X=0.495 $Y=3.33
+ $X2=0.72 $Y2=3.33
r172 72 106 8.61065 $w=1.7e-07 $l=1.65e-07 $layer=LI1_cond $X=1.025 $Y=3.33
+ $X2=1.19 $Y2=3.33
r173 72 75 19.8984 $w=1.68e-07 $l=3.05e-07 $layer=LI1_cond $X=1.025 $Y=3.33
+ $X2=0.72 $Y2=3.33
r174 70 110 0.133793 $w=4.9e-07 $l=4.8e-07 $layer=MET1_cond $X=5.04 $Y=3.33
+ $X2=5.52 $Y2=3.33
r175 70 89 0.133793 $w=4.9e-07 $l=4.8e-07 $layer=MET1_cond $X=5.04 $Y=3.33
+ $X2=4.56 $Y2=3.33
r176 70 92 9.3 $w=1.7e-07 $l=1.7e-07 $layer=mcon $count=1 $X=5.04 $Y=3.33
+ $X2=5.04 $Y2=3.33
r177 68 88 0.97861 $w=1.68e-07 $l=1.5e-08 $layer=LI1_cond $X=4.575 $Y=3.33
+ $X2=4.56 $Y2=3.33
r178 68 69 8.61065 $w=1.7e-07 $l=1.65e-07 $layer=LI1_cond $X=4.575 $Y=3.33
+ $X2=4.74 $Y2=3.33
r179 67 92 8.80749 $w=1.68e-07 $l=1.35e-07 $layer=LI1_cond $X=4.905 $Y=3.33
+ $X2=5.04 $Y2=3.33
r180 67 69 8.61065 $w=1.7e-07 $l=1.65e-07 $layer=LI1_cond $X=4.905 $Y=3.33
+ $X2=4.74 $Y2=3.33
r181 65 85 3.91444 $w=1.68e-07 $l=6e-08 $layer=LI1_cond $X=3.66 $Y=3.33 $X2=3.6
+ $Y2=3.33
r182 65 66 8.61065 $w=1.7e-07 $l=1.65e-07 $layer=LI1_cond $X=3.66 $Y=3.33
+ $X2=3.825 $Y2=3.33
r183 64 88 37.1872 $w=1.68e-07 $l=5.7e-07 $layer=LI1_cond $X=3.99 $Y=3.33
+ $X2=4.56 $Y2=3.33
r184 64 66 8.61065 $w=1.7e-07 $l=1.65e-07 $layer=LI1_cond $X=3.99 $Y=3.33
+ $X2=3.825 $Y2=3.33
r185 62 82 6.85027 $w=1.68e-07 $l=1.05e-07 $layer=LI1_cond $X=2.745 $Y=3.33
+ $X2=2.64 $Y2=3.33
r186 62 63 8.61065 $w=1.7e-07 $l=1.65e-07 $layer=LI1_cond $X=2.745 $Y=3.33
+ $X2=2.91 $Y2=3.33
r187 61 85 34.2513 $w=1.68e-07 $l=5.25e-07 $layer=LI1_cond $X=3.075 $Y=3.33
+ $X2=3.6 $Y2=3.33
r188 61 63 8.61065 $w=1.7e-07 $l=1.65e-07 $layer=LI1_cond $X=3.075 $Y=3.33
+ $X2=2.91 $Y2=3.33
r189 59 79 13.3743 $w=1.68e-07 $l=2.05e-07 $layer=LI1_cond $X=1.885 $Y=3.33
+ $X2=1.68 $Y2=3.33
r190 59 60 8.61065 $w=1.7e-07 $l=1.65e-07 $layer=LI1_cond $X=1.885 $Y=3.33
+ $X2=2.05 $Y2=3.33
r191 58 82 27.7273 $w=1.68e-07 $l=4.25e-07 $layer=LI1_cond $X=2.215 $Y=3.33
+ $X2=2.64 $Y2=3.33
r192 58 60 8.61065 $w=1.7e-07 $l=1.65e-07 $layer=LI1_cond $X=2.215 $Y=3.33
+ $X2=2.05 $Y2=3.33
r193 54 109 0.89609 $w=3.3e-07 $l=8.5e-08 $layer=LI1_cond $X=5.6 $Y=3.245
+ $X2=5.6 $Y2=3.33
r194 54 56 29.8588 $w=3.28e-07 $l=8.55e-07 $layer=LI1_cond $X=5.6 $Y=3.245
+ $X2=5.6 $Y2=2.39
r195 50 69 0.89609 $w=3.3e-07 $l=8.5e-08 $layer=LI1_cond $X=4.74 $Y=3.245
+ $X2=4.74 $Y2=3.33
r196 50 52 29.8588 $w=3.28e-07 $l=8.55e-07 $layer=LI1_cond $X=4.74 $Y=3.245
+ $X2=4.74 $Y2=2.39
r197 46 66 0.89609 $w=3.3e-07 $l=8.5e-08 $layer=LI1_cond $X=3.825 $Y=3.245
+ $X2=3.825 $Y2=3.33
r198 46 48 29.8588 $w=3.28e-07 $l=8.55e-07 $layer=LI1_cond $X=3.825 $Y=3.245
+ $X2=3.825 $Y2=2.39
r199 42 45 32.1287 $w=3.28e-07 $l=9.2e-07 $layer=LI1_cond $X=2.91 $Y=2.03
+ $X2=2.91 $Y2=2.95
r200 40 63 0.89609 $w=3.3e-07 $l=8.5e-08 $layer=LI1_cond $X=2.91 $Y=3.245
+ $X2=2.91 $Y2=3.33
r201 40 45 10.3021 $w=3.28e-07 $l=2.95e-07 $layer=LI1_cond $X=2.91 $Y=3.245
+ $X2=2.91 $Y2=2.95
r202 36 39 32.1287 $w=3.28e-07 $l=9.2e-07 $layer=LI1_cond $X=2.05 $Y=2.03
+ $X2=2.05 $Y2=2.95
r203 34 60 0.89609 $w=3.3e-07 $l=8.5e-08 $layer=LI1_cond $X=2.05 $Y=3.245
+ $X2=2.05 $Y2=3.33
r204 34 39 10.3021 $w=3.28e-07 $l=2.95e-07 $layer=LI1_cond $X=2.05 $Y=3.245
+ $X2=2.05 $Y2=2.95
r205 30 33 32.1287 $w=3.28e-07 $l=9.2e-07 $layer=LI1_cond $X=1.19 $Y=2.03
+ $X2=1.19 $Y2=2.95
r206 28 106 0.89609 $w=3.3e-07 $l=8.5e-08 $layer=LI1_cond $X=1.19 $Y=3.245
+ $X2=1.19 $Y2=3.33
r207 28 33 10.3021 $w=3.28e-07 $l=2.95e-07 $layer=LI1_cond $X=1.19 $Y=3.245
+ $X2=1.19 $Y2=2.95
r208 24 27 33.8748 $w=3.28e-07 $l=9.7e-07 $layer=LI1_cond $X=0.33 $Y=1.98
+ $X2=0.33 $Y2=2.95
r209 22 103 3.13634 $w=3.3e-07 $l=1.19499e-07 $layer=LI1_cond $X=0.33 $Y=3.245
+ $X2=0.247 $Y2=3.33
r210 22 27 10.3021 $w=3.28e-07 $l=2.95e-07 $layer=LI1_cond $X=0.33 $Y=3.245
+ $X2=0.33 $Y2=2.95
r211 7 56 300 $w=1.7e-07 $l=6.21068e-07 $layer=licon1_PDIFF $count=2 $X=5.46
+ $Y=1.835 $X2=5.6 $Y2=2.39
r212 6 52 300 $w=1.7e-07 $l=6.21068e-07 $layer=licon1_PDIFF $count=2 $X=4.6
+ $Y=1.835 $X2=4.74 $Y2=2.39
r213 5 48 300 $w=1.7e-07 $l=6.45174e-07 $layer=licon1_PDIFF $count=2 $X=3.63
+ $Y=1.835 $X2=3.825 $Y2=2.39
r214 4 45 400 $w=1.7e-07 $l=1.18293e-06 $layer=licon1_PDIFF $count=1 $X=2.77
+ $Y=1.835 $X2=2.91 $Y2=2.95
r215 4 42 400 $w=1.7e-07 $l=2.55588e-07 $layer=licon1_PDIFF $count=1 $X=2.77
+ $Y=1.835 $X2=2.91 $Y2=2.03
r216 3 39 400 $w=1.7e-07 $l=1.18293e-06 $layer=licon1_PDIFF $count=1 $X=1.91
+ $Y=1.835 $X2=2.05 $Y2=2.95
r217 3 36 400 $w=1.7e-07 $l=2.55588e-07 $layer=licon1_PDIFF $count=1 $X=1.91
+ $Y=1.835 $X2=2.05 $Y2=2.03
r218 2 33 400 $w=1.7e-07 $l=1.18293e-06 $layer=licon1_PDIFF $count=1 $X=1.05
+ $Y=1.835 $X2=1.19 $Y2=2.95
r219 2 30 400 $w=1.7e-07 $l=2.55588e-07 $layer=licon1_PDIFF $count=1 $X=1.05
+ $Y=1.835 $X2=1.19 $Y2=2.03
r220 1 27 400 $w=1.7e-07 $l=1.17584e-06 $layer=licon1_PDIFF $count=1 $X=0.205
+ $Y=1.835 $X2=0.33 $Y2=2.95
r221 1 24 400 $w=1.7e-07 $l=1.97864e-07 $layer=licon1_PDIFF $count=1 $X=0.205
+ $Y=1.835 $X2=0.33 $Y2=1.98
.ends

.subckt PM_SKY130_FD_SC_LP__A311OI_4%A_124_367# 1 2 3 4 5 6 7 8 27 31 32 35 39
+ 43 47 50 53 55 59 61 65 67 71 73 77 78 80 82 84 86 88
c113 47 0 1.70462e-19 $X=3.245 $Y=1.69
r114 74 86 5.66127 $w=1.7e-07 $l=9.5e-08 $layer=LI1_cond $X=6.645 $Y=2.03
+ $X2=6.55 $Y2=2.03
r115 73 88 3.61205 $w=1.7e-07 $l=9.5e-08 $layer=LI1_cond $X=7.315 $Y=2.03
+ $X2=7.41 $Y2=2.03
r116 73 74 43.7112 $w=1.68e-07 $l=6.7e-07 $layer=LI1_cond $X=7.315 $Y=2.03
+ $X2=6.645 $Y2=2.03
r117 69 86 0.945268 $w=1.9e-07 $l=8.5e-08 $layer=LI1_cond $X=6.55 $Y=2.115
+ $X2=6.55 $Y2=2.03
r118 69 71 26.5598 $w=1.88e-07 $l=4.55e-07 $layer=LI1_cond $X=6.55 $Y=2.115
+ $X2=6.55 $Y2=2.57
r119 68 84 5.66127 $w=1.7e-07 $l=9.5e-08 $layer=LI1_cond $X=5.265 $Y=2.03
+ $X2=5.17 $Y2=2.03
r120 67 86 5.66127 $w=1.7e-07 $l=9.5e-08 $layer=LI1_cond $X=6.455 $Y=2.03
+ $X2=6.55 $Y2=2.03
r121 67 68 77.6364 $w=1.68e-07 $l=1.19e-06 $layer=LI1_cond $X=6.455 $Y=2.03
+ $X2=5.265 $Y2=2.03
r122 63 84 0.945268 $w=1.9e-07 $l=8.5e-08 $layer=LI1_cond $X=5.17 $Y=2.115
+ $X2=5.17 $Y2=2.03
r123 63 65 23.3493 $w=1.88e-07 $l=4e-07 $layer=LI1_cond $X=5.17 $Y=2.115
+ $X2=5.17 $Y2=2.515
r124 62 82 6.92067 $w=1.7e-07 $l=1.23e-07 $layer=LI1_cond $X=4.405 $Y=2.03
+ $X2=4.282 $Y2=2.03
r125 61 84 5.66127 $w=1.7e-07 $l=9.5e-08 $layer=LI1_cond $X=5.075 $Y=2.03
+ $X2=5.17 $Y2=2.03
r126 61 62 43.7112 $w=1.68e-07 $l=6.7e-07 $layer=LI1_cond $X=5.075 $Y=2.03
+ $X2=4.405 $Y2=2.03
r127 57 82 0.066131 $w=2.45e-07 $l=8.5e-08 $layer=LI1_cond $X=4.282 $Y=2.115
+ $X2=4.282 $Y2=2.03
r128 57 59 18.8154 $w=2.43e-07 $l=4e-07 $layer=LI1_cond $X=4.282 $Y=2.115
+ $X2=4.282 $Y2=2.515
r129 56 80 2.79892 $w=1.7e-07 $l=1.3e-07 $layer=LI1_cond $X=3.505 $Y=2.03
+ $X2=3.375 $Y2=2.03
r130 55 82 6.92067 $w=1.7e-07 $l=1.22e-07 $layer=LI1_cond $X=4.16 $Y=2.03
+ $X2=4.282 $Y2=2.03
r131 55 56 42.7326 $w=1.68e-07 $l=6.55e-07 $layer=LI1_cond $X=4.16 $Y=2.03
+ $X2=3.505 $Y2=2.03
r132 51 80 3.67481 $w=2.52e-07 $l=8.89101e-08 $layer=LI1_cond $X=3.367 $Y=2.115
+ $X2=3.375 $Y2=2.03
r133 51 53 37.3956 $w=2.43e-07 $l=7.95e-07 $layer=LI1_cond $X=3.367 $Y=2.115
+ $X2=3.367 $Y2=2.91
r134 50 80 3.67481 $w=2.52e-07 $l=8.5e-08 $layer=LI1_cond $X=3.375 $Y=1.945
+ $X2=3.375 $Y2=2.03
r135 49 50 7.5352 $w=2.58e-07 $l=1.7e-07 $layer=LI1_cond $X=3.375 $Y=1.775
+ $X2=3.375 $Y2=1.945
r136 48 78 5.66127 $w=1.7e-07 $l=9.5e-08 $layer=LI1_cond $X=2.575 $Y=1.69
+ $X2=2.48 $Y2=1.69
r137 47 49 7.21222 $w=1.7e-07 $l=1.67183e-07 $layer=LI1_cond $X=3.245 $Y=1.69
+ $X2=3.375 $Y2=1.775
r138 47 48 43.7112 $w=1.68e-07 $l=6.7e-07 $layer=LI1_cond $X=3.245 $Y=1.69
+ $X2=2.575 $Y2=1.69
r139 43 45 54.2871 $w=1.88e-07 $l=9.3e-07 $layer=LI1_cond $X=2.48 $Y=1.98
+ $X2=2.48 $Y2=2.91
r140 41 78 0.945268 $w=1.9e-07 $l=8.5e-08 $layer=LI1_cond $X=2.48 $Y=1.775
+ $X2=2.48 $Y2=1.69
r141 41 43 11.9665 $w=1.88e-07 $l=2.05e-07 $layer=LI1_cond $X=2.48 $Y=1.775
+ $X2=2.48 $Y2=1.98
r142 40 77 5.66127 $w=1.7e-07 $l=9.5e-08 $layer=LI1_cond $X=1.715 $Y=1.69
+ $X2=1.62 $Y2=1.69
r143 39 78 5.66127 $w=1.7e-07 $l=9.5e-08 $layer=LI1_cond $X=2.385 $Y=1.69
+ $X2=2.48 $Y2=1.69
r144 39 40 43.7112 $w=1.68e-07 $l=6.7e-07 $layer=LI1_cond $X=2.385 $Y=1.69
+ $X2=1.715 $Y2=1.69
r145 35 37 54.2871 $w=1.88e-07 $l=9.3e-07 $layer=LI1_cond $X=1.62 $Y=1.98
+ $X2=1.62 $Y2=2.91
r146 33 77 0.945268 $w=1.9e-07 $l=8.5e-08 $layer=LI1_cond $X=1.62 $Y=1.775
+ $X2=1.62 $Y2=1.69
r147 33 35 11.9665 $w=1.88e-07 $l=2.05e-07 $layer=LI1_cond $X=1.62 $Y=1.775
+ $X2=1.62 $Y2=1.98
r148 31 77 5.66127 $w=1.7e-07 $l=9.5e-08 $layer=LI1_cond $X=1.525 $Y=1.69
+ $X2=1.62 $Y2=1.69
r149 31 32 43.7112 $w=1.68e-07 $l=6.7e-07 $layer=LI1_cond $X=1.525 $Y=1.69
+ $X2=0.855 $Y2=1.69
r150 27 29 54.2871 $w=1.88e-07 $l=9.3e-07 $layer=LI1_cond $X=0.76 $Y=1.98
+ $X2=0.76 $Y2=2.91
r151 25 32 6.84389 $w=1.7e-07 $l=1.30767e-07 $layer=LI1_cond $X=0.76 $Y=1.775
+ $X2=0.855 $Y2=1.69
r152 25 27 11.9665 $w=1.88e-07 $l=2.05e-07 $layer=LI1_cond $X=0.76 $Y=1.775
+ $X2=0.76 $Y2=1.98
r153 8 88 300 $w=1.7e-07 $l=3.37824e-07 $layer=licon1_PDIFF $count=2 $X=7.27
+ $Y=1.835 $X2=7.41 $Y2=2.11
r154 7 86 600 $w=1.7e-07 $l=2.55588e-07 $layer=licon1_PDIFF $count=1 $X=6.41
+ $Y=1.835 $X2=6.55 $Y2=2.03
r155 7 71 600 $w=1.7e-07 $l=8.01951e-07 $layer=licon1_PDIFF $count=1 $X=6.41
+ $Y=1.835 $X2=6.55 $Y2=2.57
r156 6 84 600 $w=1.7e-07 $l=2.55588e-07 $layer=licon1_PDIFF $count=1 $X=5.03
+ $Y=1.835 $X2=5.17 $Y2=2.03
r157 6 65 300 $w=1.7e-07 $l=7.46726e-07 $layer=licon1_PDIFF $count=2 $X=5.03
+ $Y=1.835 $X2=5.17 $Y2=2.515
r158 5 82 600 $w=1.7e-07 $l=2.55588e-07 $layer=licon1_PDIFF $count=1 $X=4.17
+ $Y=1.835 $X2=4.31 $Y2=2.03
r159 5 59 300 $w=1.7e-07 $l=7.46726e-07 $layer=licon1_PDIFF $count=2 $X=4.17
+ $Y=1.835 $X2=4.31 $Y2=2.515
r160 4 80 400 $w=1.7e-07 $l=2.03286e-07 $layer=licon1_PDIFF $count=1 $X=3.2
+ $Y=1.835 $X2=3.34 $Y2=1.98
r161 4 53 400 $w=1.7e-07 $l=1.14286e-06 $layer=licon1_PDIFF $count=1 $X=3.2
+ $Y=1.835 $X2=3.34 $Y2=2.91
r162 3 45 400 $w=1.7e-07 $l=1.14286e-06 $layer=licon1_PDIFF $count=1 $X=2.34
+ $Y=1.835 $X2=2.48 $Y2=2.91
r163 3 43 400 $w=1.7e-07 $l=2.03286e-07 $layer=licon1_PDIFF $count=1 $X=2.34
+ $Y=1.835 $X2=2.48 $Y2=1.98
r164 2 37 400 $w=1.7e-07 $l=1.14286e-06 $layer=licon1_PDIFF $count=1 $X=1.48
+ $Y=1.835 $X2=1.62 $Y2=2.91
r165 2 35 400 $w=1.7e-07 $l=2.03286e-07 $layer=licon1_PDIFF $count=1 $X=1.48
+ $Y=1.835 $X2=1.62 $Y2=1.98
r166 1 29 400 $w=1.7e-07 $l=1.14286e-06 $layer=licon1_PDIFF $count=1 $X=0.62
+ $Y=1.835 $X2=0.76 $Y2=2.91
r167 1 27 400 $w=1.7e-07 $l=2.03286e-07 $layer=licon1_PDIFF $count=1 $X=0.62
+ $Y=1.835 $X2=0.76 $Y2=1.98
.ends

.subckt PM_SKY130_FD_SC_LP__A311OI_4%A_1199_367# 1 2 3 4 5 18 20 21 24 26 30 32
+ 36 38 40 42 44 46 48
r77 40 50 2.74877 $w=2.9e-07 $l=8.5e-08 $layer=LI1_cond $X=9.58 $Y=2.905
+ $X2=9.58 $Y2=2.99
r78 40 42 36.759 $w=2.88e-07 $l=9.25e-07 $layer=LI1_cond $X=9.58 $Y=2.905
+ $X2=9.58 $Y2=1.98
r79 39 48 8.61065 $w=1.7e-07 $l=1.65e-07 $layer=LI1_cond $X=8.865 $Y=2.99
+ $X2=8.7 $Y2=2.99
r80 38 50 4.68908 $w=1.7e-07 $l=1.45e-07 $layer=LI1_cond $X=9.435 $Y=2.99
+ $X2=9.58 $Y2=2.99
r81 38 39 37.1872 $w=1.68e-07 $l=5.7e-07 $layer=LI1_cond $X=9.435 $Y=2.99
+ $X2=8.865 $Y2=2.99
r82 34 48 0.89609 $w=3.3e-07 $l=8.5e-08 $layer=LI1_cond $X=8.7 $Y=2.905 $X2=8.7
+ $Y2=2.99
r83 34 36 30.5572 $w=3.28e-07 $l=8.75e-07 $layer=LI1_cond $X=8.7 $Y=2.905
+ $X2=8.7 $Y2=2.03
r84 33 46 8.61065 $w=1.7e-07 $l=1.65e-07 $layer=LI1_cond $X=8.005 $Y=2.99
+ $X2=7.84 $Y2=2.99
r85 32 48 8.61065 $w=1.7e-07 $l=1.65e-07 $layer=LI1_cond $X=8.535 $Y=2.99
+ $X2=8.7 $Y2=2.99
r86 32 33 34.5775 $w=1.68e-07 $l=5.3e-07 $layer=LI1_cond $X=8.535 $Y=2.99
+ $X2=8.005 $Y2=2.99
r87 28 46 0.89609 $w=3.3e-07 $l=8.5e-08 $layer=LI1_cond $X=7.84 $Y=2.905
+ $X2=7.84 $Y2=2.99
r88 28 30 30.5572 $w=3.28e-07 $l=8.75e-07 $layer=LI1_cond $X=7.84 $Y=2.905