* File: sky130_fd_sc_lp__busdrivernovlp2_20.pex.spice
* Created: Fri Aug 28 10:13:32 2020
* Program "Calibre xRC"
* Version "v2018.4_34.26"
* Nominal Temperature: 27C
* Circuit Temperature: 27C
* 
.subckt PM_SKY130_FD_SC_LP__BUSDRIVERNOVLP2_20%TE_B 3 5 7 9 10 11 12 14 15 17 19
+ 22 26 29 30 31 34 35 36 37 38 39 40 42 43 44 46 47 48 50 53 57 58 60 66 72
c203 39 0 1.45114e-19 $X=3.335 $Y=0.935
c204 5 0 3.30551e-20 $X=0.93 $Y=0.955
r205 67 72 2.7938 $w=3.28e-07 $l=8e-08 $layer=LI1_cond $X=0.67 $Y=1.16 $X2=0.67
+ $Y2=1.08
r206 66 67 145.28 $w=1.7e-07 $l=1.7e-07 $layer=licon1_POLY $count=1 $X=0.67
+ $Y=1.16 $X2=0.67 $Y2=1.16
r207 64 66 29.8306 $w=3.07e-07 $l=1.9e-07 $layer=POLY_cond $X=0.48 $Y=1.14
+ $X2=0.67 $Y2=1.14
r208 60 67 4.71454 $w=3.28e-07 $l=1.35e-07 $layer=LI1_cond $X=0.67 $Y=1.295
+ $X2=0.67 $Y2=1.16
r209 58 71 46.4315 $w=3.5e-07 $l=1.65e-07 $layer=POLY_cond $X=6.125 $Y=1.16
+ $X2=6.125 $Y2=1.325
r210 58 70 46.4315 $w=3.5e-07 $l=1.65e-07 $layer=POLY_cond $X=6.125 $Y=1.16
+ $X2=6.125 $Y2=0.995
r211 57 58 145.28 $w=1.7e-07 $l=1.7e-07 $layer=licon1_POLY $count=1 $X=6.115
+ $Y=1.16 $X2=6.115 $Y2=1.16
r212 54 57 7.50834 $w=3.28e-07 $l=2.15e-07 $layer=LI1_cond $X=5.9 $Y=1.16
+ $X2=6.115 $Y2=1.16
r213 52 53 72.64 $w=1.7e-07 $l=3.4e-07 $layer=licon1_POLY $count=2 $X=2.64
+ $Y=0.43 $X2=2.64 $Y2=0.43
r214 50 54 4.62375 $w=1.7e-07 $l=1.65e-07 $layer=LI1_cond $X=5.9 $Y=0.995
+ $X2=5.9 $Y2=1.16
r215 49 50 11.7433 $w=1.68e-07 $l=1.8e-07 $layer=LI1_cond $X=5.9 $Y=0.815
+ $X2=5.9 $Y2=0.995
r216 47 49 6.81649 $w=1.7e-07 $l=1.20208e-07 $layer=LI1_cond $X=5.815 $Y=0.73
+ $X2=5.9 $Y2=0.815
r217 47 48 105.037 $w=1.68e-07 $l=1.61e-06 $layer=LI1_cond $X=5.815 $Y=0.73
+ $X2=4.205 $Y2=0.73
r218 46 48 6.81649 $w=1.7e-07 $l=1.20208e-07 $layer=LI1_cond $X=4.12 $Y=0.645
+ $X2=4.205 $Y2=0.73
r219 45 46 13.7005 $w=1.68e-07 $l=2.1e-07 $layer=LI1_cond $X=4.12 $Y=0.435
+ $X2=4.12 $Y2=0.645
r220 43 45 6.81649 $w=1.7e-07 $l=1.20208e-07 $layer=LI1_cond $X=4.035 $Y=0.35
+ $X2=4.12 $Y2=0.435
r221 43 44 34.5775 $w=1.68e-07 $l=5.3e-07 $layer=LI1_cond $X=4.035 $Y=0.35
+ $X2=3.505 $Y2=0.35
r222 41 44 6.81649 $w=1.7e-07 $l=1.20208e-07 $layer=LI1_cond $X=3.42 $Y=0.435
+ $X2=3.505 $Y2=0.35
r223 41 42 27.0749 $w=1.68e-07 $l=4.15e-07 $layer=LI1_cond $X=3.42 $Y=0.435
+ $X2=3.42 $Y2=0.85
r224 39 42 6.81649 $w=1.7e-07 $l=1.20208e-07 $layer=LI1_cond $X=3.335 $Y=0.935
+ $X2=3.42 $Y2=0.85
r225 39 40 34.5775 $w=1.68e-07 $l=5.3e-07 $layer=LI1_cond $X=3.335 $Y=0.935
+ $X2=2.805 $Y2=0.935
r226 38 40 7.76618 $w=1.7e-07 $l=2.03101e-07 $layer=LI1_cond $X=2.64 $Y=0.85
+ $X2=2.805 $Y2=0.935
r227 37 52 2.6405 $w=3.3e-07 $l=8.5e-08 $layer=LI1_cond $X=2.64 $Y=0.435
+ $X2=2.64 $Y2=0.35
r228 37 38 14.4928 $w=3.28e-07 $l=4.15e-07 $layer=LI1_cond $X=2.64 $Y=0.435
+ $X2=2.64 $Y2=0.85
r229 35 52 5.12568 $w=1.7e-07 $l=1.65e-07 $layer=LI1_cond $X=2.475 $Y=0.35
+ $X2=2.64 $Y2=0.35
r230 35 36 47.9519 $w=1.68e-07 $l=7.35e-07 $layer=LI1_cond $X=2.475 $Y=0.35
+ $X2=1.74 $Y2=0.35
r231 33 36 6.81649 $w=1.7e-07 $l=1.20208e-07 $layer=LI1_cond $X=1.655 $Y=0.435
+ $X2=1.74 $Y2=0.35
r232 33 34 36.5348 $w=1.68e-07 $l=5.6e-07 $layer=LI1_cond $X=1.655 $Y=0.435
+ $X2=1.655 $Y2=0.995
r233 32 72 4.62375 $w=1.7e-07 $l=1.65e-07 $layer=LI1_cond $X=0.835 $Y=1.08
+ $X2=0.67 $Y2=1.08
r234 31 34 6.81649 $w=1.7e-07 $l=1.20208e-07 $layer=LI1_cond $X=1.57 $Y=1.08
+ $X2=1.655 $Y2=0.995
r235 31 32 47.9519 $w=1.68e-07 $l=7.35e-07 $layer=LI1_cond $X=1.57 $Y=1.08
+ $X2=0.835 $Y2=1.08
r236 28 53 59.4528 $w=3.3e-07 $l=3.4e-07 $layer=POLY_cond $X=2.64 $Y=0.77
+ $X2=2.64 $Y2=0.43
r237 28 29 46.2115 $w=3.3e-07 $l=1.65e-07 $layer=POLY_cond $X=2.64 $Y=0.77
+ $X2=2.64 $Y2=0.935
r238 26 71 492.255 $w=1.5e-07 $l=9.6e-07 $layer=POLY_cond $X=6.225 $Y=2.285
+ $X2=6.225 $Y2=1.325
r239 22 70 282.021 $w=1.5e-07 $l=5.5e-07 $layer=POLY_cond $X=6.115 $Y=0.445
+ $X2=6.115 $Y2=0.995
r240 17 19 170.307 $w=1.5e-07 $l=5.3e-07 $layer=POLY_cond $X=3.985 $Y=1.185
+ $X2=3.985 $Y2=0.655
r241 16 30 20.4101 $w=1.5e-07 $l=7.5e-08 $layer=POLY_cond $X=3.63 $Y=1.26
+ $X2=3.555 $Y2=1.26
r242 15 17 26.9307 $w=1.5e-07 $l=1.06066e-07 $layer=POLY_cond $X=3.91 $Y=1.26
+ $X2=3.985 $Y2=1.185
r243 15 16 143.574 $w=1.5e-07 $l=2.8e-07 $layer=POLY_cond $X=3.91 $Y=1.26
+ $X2=3.63 $Y2=1.26
r244 12 30 5.30422 $w=1.5e-07 $l=7.5e-08 $layer=POLY_cond $X=3.555 $Y=1.185
+ $X2=3.555 $Y2=1.26
r245 12 14 170.307 $w=1.5e-07 $l=5.3e-07 $layer=POLY_cond $X=3.555 $Y=1.185
+ $X2=3.555 $Y2=0.655
r246 10 30 20.4101 $w=1.5e-07 $l=7.5e-08 $layer=POLY_cond $X=3.48 $Y=1.26
+ $X2=3.555 $Y2=1.26
r247 10 11 346.117 $w=1.5e-07 $l=6.75e-07 $layer=POLY_cond $X=3.48 $Y=1.26
+ $X2=2.805 $Y2=1.26
r248 9 11 26.9307 $w=1.5e-07 $l=1.06066e-07 $layer=POLY_cond $X=2.73 $Y=1.185
+ $X2=2.805 $Y2=1.26
r249 9 29 128.191 $w=1.5e-07 $l=2.5e-07 $layer=POLY_cond $X=2.73 $Y=1.185
+ $X2=2.73 $Y2=0.935
r250 5 66 40.8208 $w=3.07e-07 $l=3.40147e-07 $layer=POLY_cond $X=0.93 $Y=0.955
+ $X2=0.67 $Y2=1.14
r251 5 7 102.827 $w=1.5e-07 $l=3.2e-07 $layer=POLY_cond $X=0.93 $Y=0.955
+ $X2=0.93 $Y2=0.635
r252 1 64 19.5117 $w=1.5e-07 $l=1.85e-07 $layer=POLY_cond $X=0.48 $Y=1.325
+ $X2=0.48 $Y2=1.14
r253 1 3 476.872 $w=1.5e-07 $l=9.3e-07 $layer=POLY_cond $X=0.48 $Y=1.325
+ $X2=0.48 $Y2=2.255
.ends

.subckt PM_SKY130_FD_SC_LP__BUSDRIVERNOVLP2_20%A_27_367# 1 2 7 9 12 14 16 17 18
+ 21 24 27 29 30 31 33 35 40
c105 29 0 3.30551e-20 $X=0.55 $Y=0.73
c106 17 0 1.14036e-19 $X=1.875 $Y=1.64
c107 14 0 3.92328e-20 $X=1.44 $Y=1.715
c108 12 0 9.82022e-20 $X=1.44 $Y=0.635
r109 41 47 29.2588 $w=3.13e-07 $l=1.9e-07 $layer=POLY_cond $X=1.25 $Y=1.53
+ $X2=1.44 $Y2=1.53
r110 40 43 5.76222 $w=3.28e-07 $l=1.65e-07 $layer=LI1_cond $X=1.25 $Y=1.51
+ $X2=1.25 $Y2=1.675
r111 40 41 145.28 $w=1.7e-07 $l=1.7e-07 $layer=licon1_POLY $count=1 $X=1.25
+ $Y=1.51 $X2=1.25 $Y2=1.51
r112 35 37 4.1907 $w=3.28e-07 $l=1.2e-07 $layer=LI1_cond $X=0.715 $Y=0.61
+ $X2=0.715 $Y2=0.73
r113 32 33 2.76166 $w=1.7e-07 $l=1.65e-07 $layer=LI1_cond $X=0.43 $Y=1.675
+ $X2=0.265 $Y2=1.675
r114 31 43 4.62375 $w=1.7e-07 $l=1.65e-07 $layer=LI1_cond $X=1.085 $Y=1.675
+ $X2=1.25 $Y2=1.675
r115 31 32 42.7326 $w=1.68e-07 $l=6.55e-07 $layer=LI1_cond $X=1.085 $Y=1.675
+ $X2=0.43 $Y2=1.675
r116 29 37 4.62375 $w=1.7e-07 $l=1.65e-07 $layer=LI1_cond $X=0.55 $Y=0.73
+ $X2=0.715 $Y2=0.73
r117 29 30 18.2674 $w=1.68e-07 $l=2.8e-07 $layer=LI1_cond $X=0.55 $Y=0.73
+ $X2=0.27 $Y2=0.73
r118 25 33 3.70735 $w=2.5e-07 $l=8.5e-08 $layer=LI1_cond $X=0.265 $Y=1.76
+ $X2=0.265 $Y2=1.675
r119 25 27 7.68295 $w=3.28e-07 $l=2.2e-07 $layer=LI1_cond $X=0.265 $Y=1.76
+ $X2=0.265 $Y2=1.98
r120 24 33 3.70735 $w=2.5e-07 $l=1.18427e-07 $layer=LI1_cond $X=0.185 $Y=1.59
+ $X2=0.265 $Y2=1.675
r121 23 30 6.81649 $w=1.7e-07 $l=1.20208e-07 $layer=LI1_cond $X=0.185 $Y=0.815
+ $X2=0.27 $Y2=0.73
r122 23 24 50.5615 $w=1.68e-07 $l=7.75e-07 $layer=LI1_cond $X=0.185 $Y=0.815
+ $X2=0.185 $Y2=1.59
r123 19 21 492.255 $w=1.5e-07 $l=9.6e-07 $layer=POLY_cond $X=1.95 $Y=1.715
+ $X2=1.95 $Y2=2.675
r124 18 47 24.674 $w=3.13e-07 $l=1.42653e-07 $layer=POLY_cond $X=1.515 $Y=1.64
+ $X2=1.44 $Y2=1.53
r125 17 19 26.9307 $w=1.5e-07 $l=1.06066e-07 $layer=POLY_cond $X=1.875 $Y=1.64
+ $X2=1.95 $Y2=1.715
r126 17 18 184.596 $w=1.5e-07 $l=3.6e-07 $layer=POLY_cond $X=1.875 $Y=1.64
+ $X2=1.515 $Y2=1.64
r127 14 47 19.9686 $w=1.5e-07 $l=1.85e-07 $layer=POLY_cond $X=1.44 $Y=1.715
+ $X2=1.44 $Y2=1.53
r128 14 16 241 $w=1.5e-07 $l=7.5e-07 $layer=POLY_cond $X=1.44 $Y=1.715 $X2=1.44
+ $Y2=2.465
r129 10 47 19.9686 $w=1.5e-07 $l=1.85e-07 $layer=POLY_cond $X=1.44 $Y=1.345
+ $X2=1.44 $Y2=1.53
r130 10 12 364.064 $w=1.5e-07 $l=7.1e-07 $layer=POLY_cond $X=1.44 $Y=1.345
+ $X2=1.44 $Y2=0.635
r131 7 41 36.9585 $w=3.13e-07 $l=3.19374e-07 $layer=POLY_cond $X=1.01 $Y=1.715
+ $X2=1.25 $Y2=1.53
r132 7 9 241 $w=1.5e-07 $l=7.5e-07 $layer=POLY_cond $X=1.01 $Y=1.715 $X2=1.01
+ $Y2=2.465
r133 2 27 300 $w=1.7e-07 $l=1.99687e-07 $layer=licon1_PDIFF $count=2 $X=0.135
+ $Y=1.835 $X2=0.265 $Y2=1.98
r134 1 35 182 $w=1.7e-07 $l=2.47083e-07 $layer=licon1_NDIFF $count=1 $X=0.57
+ $Y=0.425 $X2=0.715 $Y2=0.61
.ends

.subckt PM_SKY130_FD_SC_LP__BUSDRIVERNOVLP2_20%A_217_367# 1 2 3 12 14 15 20 22
+ 24 25 26 27 29 30 32 34 35 37 39 40 42 44 45 47 49 50 52 54 55 57 59 60 62 64
+ 65 67 69 70 72 74 75 77 79 80 82 83 85 86 88 89 91 92 94 95 97 98 100 101 103
+ 104 105 106 107 108 109 110 111 112 113 114 116 118 121 123 126 130 131 133
+ 137 141 144 145 146 149 160 168 169 170 175 180 185 190 191 208
c502 168 0 3.75487e-20 $X=2.4 $Y=1.74
c503 145 0 5.44897e-19 $X=2.305 $Y=1.665
c504 144 0 3.02269e-19 $X=9.215 $Y=1.665
c505 123 0 6.94902e-20 $X=1.765 $Y=1.635
c506 26 0 3.81595e-20 $X=9.165 $Y=1.65
r507 190 192 40.8145 $w=3.72e-07 $l=3.15e-07 $layer=POLY_cond $X=16.945 $Y=1.535
+ $X2=17.26 $Y2=1.535
r508 190 191 72.64 $w=1.7e-07 $l=3.4e-07 $layer=licon1_POLY $count=2 $X=16.945
+ $Y=1.51 $X2=16.945 $Y2=1.51
r509 188 190 14.9005 $w=3.72e-07 $l=1.15e-07 $layer=POLY_cond $X=16.83 $Y=1.535
+ $X2=16.945 $Y2=1.535
r510 187 188 55.7151 $w=3.72e-07 $l=4.3e-07 $layer=POLY_cond $X=16.4 $Y=1.535
+ $X2=16.83 $Y2=1.535
r511 186 187 55.7151 $w=3.72e-07 $l=4.3e-07 $layer=POLY_cond $X=15.97 $Y=1.535
+ $X2=16.4 $Y2=1.535
r512 184 186 29.1532 $w=3.72e-07 $l=2.25e-07 $layer=POLY_cond $X=15.745 $Y=1.535
+ $X2=15.97 $Y2=1.535
r513 184 185 145.28 $w=1.7e-07 $l=1.7e-07 $layer=licon1_POLY $count=1 $X=15.745
+ $Y=1.51 $X2=15.745 $Y2=1.51
r514 182 184 26.5618 $w=3.72e-07 $l=2.05e-07 $layer=POLY_cond $X=15.54 $Y=1.535
+ $X2=15.745 $Y2=1.535
r515 181 182 55.7151 $w=3.72e-07 $l=4.3e-07 $layer=POLY_cond $X=15.11 $Y=1.535
+ $X2=15.54 $Y2=1.535
r516 179 181 29.1532 $w=3.72e-07 $l=2.25e-07 $layer=POLY_cond $X=14.885 $Y=1.535
+ $X2=15.11 $Y2=1.535
r517 179 180 145.28 $w=1.7e-07 $l=1.7e-07 $layer=licon1_POLY $count=1 $X=14.885
+ $Y=1.51 $X2=14.885 $Y2=1.51
r518 177 179 26.5618 $w=3.72e-07 $l=2.05e-07 $layer=POLY_cond $X=14.68 $Y=1.535
+ $X2=14.885 $Y2=1.535
r519 176 177 55.7151 $w=3.72e-07 $l=4.3e-07 $layer=POLY_cond $X=14.25 $Y=1.535
+ $X2=14.68 $Y2=1.535
r520 174 176 29.1532 $w=3.72e-07 $l=2.25e-07 $layer=POLY_cond $X=14.025 $Y=1.535
+ $X2=14.25 $Y2=1.535
r521 174 175 145.28 $w=1.7e-07 $l=1.7e-07 $layer=licon1_POLY $count=1 $X=14.025
+ $Y=1.51 $X2=14.025 $Y2=1.51
r522 168 171 46.2115 $w=3.3e-07 $l=1.65e-07 $layer=POLY_cond $X=2.4 $Y=1.74
+ $X2=2.4 $Y2=1.905
r523 168 170 46.2115 $w=3.3e-07 $l=1.65e-07 $layer=POLY_cond $X=2.4 $Y=1.74
+ $X2=2.4 $Y2=1.575
r524 168 169 145.28 $w=1.7e-07 $l=1.7e-07 $layer=licon1_POLY $count=1 $X=2.4
+ $Y=1.74 $X2=2.4 $Y2=1.74
r525 165 169 7.79116 $w=3.53e-07 $l=2.4e-07 $layer=LI1_cond $X=2.16 $Y=1.727
+ $X2=2.4 $Y2=1.727
r526 165 208 6.8759 $w=3.53e-07 $l=1.15e-07 $layer=LI1_cond $X=2.16 $Y=1.727
+ $X2=2.045 $Y2=1.727
r527 164 165 9.3 $w=1.7e-07 $l=1.7e-07 $layer=mcon $count=1 $X=2.16 $Y=1.665
+ $X2=2.16 $Y2=1.665
r528 160 191 4.65 $w=1.7e-07 $l=3.4e-07 $layer=mcon $count=2 $X=16.965 $Y=1.665
+ $X2=16.965 $Y2=1.665
r529 157 160 0.782757 $w=2.3e-07 $l=1.22e-06 $layer=MET1_cond $X=15.745 $Y=1.665
+ $X2=16.965 $Y2=1.665
r530 157 185 9.3 $w=1.7e-07 $l=1.7e-07 $layer=mcon $count=1 $X=15.745 $Y=1.665
+ $X2=15.745 $Y2=1.665
r531 154 157 0.55178 $w=2.3e-07 $l=8.6e-07 $layer=MET1_cond $X=14.885 $Y=1.665
+ $X2=15.745 $Y2=1.665
r532 154 180 9.3 $w=1.7e-07 $l=1.7e-07 $layer=mcon $count=1 $X=14.885 $Y=1.665
+ $X2=14.885 $Y2=1.665
r533 151 154 0.55178 $w=2.3e-07 $l=8.6e-07 $layer=MET1_cond $X=14.025 $Y=1.665
+ $X2=14.885 $Y2=1.665
r534 151 175 9.3 $w=1.7e-07 $l=1.7e-07 $layer=mcon $count=1 $X=14.025 $Y=1.665
+ $X2=14.025 $Y2=1.665
r535 148 151 2.99308 $w=2.3e-07 $l=4.665e-06 $layer=MET1_cond $X=9.36 $Y=1.665
+ $X2=14.025 $Y2=1.665
r536 148 149 9.3 $w=1.7e-07 $l=1.7e-07 $layer=mcon $count=1 $X=9.36 $Y=1.665
+ $X2=9.36 $Y2=1.665
r537 146 148 0.0192481 $w=2.3e-07 $l=3e-08 $layer=MET1_cond $X=9.33 $Y=1.665
+ $X2=9.36 $Y2=1.665
r538 145 164 0.115467 $w=2.3e-07 $l=1.45e-07 $layer=MET1_cond $X=2.305 $Y=1.665
+ $X2=2.16 $Y2=1.665
r539 144 146 0.0850015 $w=2.3e-07 $l=1.15e-07 $layer=MET1_cond $X=9.215 $Y=1.665
+ $X2=9.33 $Y2=1.665
r540 144 145 8.55196 $w=1.4e-07 $l=6.91e-06 $layer=MET1_cond $X=9.215 $Y=1.665
+ $X2=2.305 $Y2=1.665
r541 141 149 16.034 $w=2.28e-07 $l=3.2e-07 $layer=LI1_cond $X=9.04 $Y=1.665
+ $X2=9.36 $Y2=1.665
r542 141 142 13.3743 $w=1.68e-07 $l=2.05e-07 $layer=LI1_cond $X=8.955 $Y=1.665
+ $X2=8.955 $Y2=1.87
r543 137 139 12.2323 $w=3.53e-07 $l=2.8e-07 $layer=LI1_cond $X=8.862 $Y=0.815
+ $X2=8.862 $Y2=1.095
r544 133 141 7.50267 $w=1.68e-07 $l=1.15e-07 $layer=LI1_cond $X=8.955 $Y=1.55
+ $X2=8.955 $Y2=1.665
r545 133 139 29.6845 $w=1.68e-07 $l=4.55e-07 $layer=LI1_cond $X=8.955 $Y=1.55
+ $X2=8.955 $Y2=1.095
r546 130 142 0.716491 $w=1.7e-07 $l=8.5e-08 $layer=LI1_cond $X=8.87 $Y=1.87
+ $X2=8.955 $Y2=1.87
r547 130 131 55.1283 $w=1.68e-07 $l=8.45e-07 $layer=LI1_cond $X=8.87 $Y=1.87
+ $X2=8.025 $Y2=1.87
r548 126 128 32.1287 $w=3.28e-07 $l=9.2e-07 $layer=LI1_cond $X=7.86 $Y=1.98
+ $X2=7.86 $Y2=2.9
r549 124 131 7.76618 $w=1.7e-07 $l=2.03101e-07 $layer=LI1_cond $X=7.86 $Y=1.955
+ $X2=8.025 $Y2=1.87
r550 124 126 0.873063 $w=3.28e-07 $l=2.5e-08 $layer=LI1_cond $X=7.86 $Y=1.955
+ $X2=7.86 $Y2=1.98
r551 123 208 18.2674 $w=1.68e-07 $l=2.8e-07 $layer=LI1_cond $X=1.765 $Y=1.635
+ $X2=2.045 $Y2=1.635
r552 120 123 6.81649 $w=1.7e-07 $l=1.20208e-07 $layer=LI1_cond $X=1.68 $Y=1.72
+ $X2=1.765 $Y2=1.635
r553 120 121 14.3529 $w=1.68e-07 $l=2.2e-07 $layer=LI1_cond $X=1.68 $Y=1.72
+ $X2=1.68 $Y2=1.94
r554 119 135 5.12568 $w=1.7e-07 $l=1.65e-07 $layer=LI1_cond $X=1.39 $Y=2.025
+ $X2=1.225 $Y2=2.025
r555 118 121 6.81649 $w=1.7e-07 $l=1.20208e-07 $layer=LI1_cond $X=1.595 $Y=2.025
+ $X2=1.68 $Y2=1.94
r556 118 119 13.3743 $w=1.68e-07 $l=2.05e-07 $layer=LI1_cond $X=1.595 $Y=2.025
+ $X2=1.39 $Y2=2.025
r557 114 135 2.6405 $w=3.3e-07 $l=8.5e-08 $layer=LI1_cond $X=1.225 $Y=2.11
+ $X2=1.225 $Y2=2.025
r558 114 116 27.5888 $w=3.28e-07 $l=7.9e-07 $layer=LI1_cond $X=1.225 $Y=2.11
+ $X2=1.225 $Y2=2.9
r559 101 192 24.0971 $w=1.5e-07 $l=1.9e-07 $layer=POLY_cond $X=17.26 $Y=1.725
+ $X2=17.26 $Y2=1.535
r560 101 103 237.787 $w=1.5e-07 $l=7.4e-07 $layer=POLY_cond $X=17.26 $Y=1.725
+ $X2=17.26 $Y2=2.465
r561 98 188 24.0971 $w=1.5e-07 $l=1.9e-07 $layer=POLY_cond $X=16.83 $Y=1.725
+ $X2=16.83 $Y2=1.535
r562 98 100 237.787 $w=1.5e-07 $l=7.4e-07 $layer=POLY_cond $X=16.83 $Y=1.725
+ $X2=16.83 $Y2=2.465
r563 95 187 24.0971 $w=1.5e-07 $l=1.9e-07 $layer=POLY_cond $X=16.4 $Y=1.725
+ $X2=16.4 $Y2=1.535
r564 95 97 237.787 $w=1.5e-07 $l=7.4e-07 $layer=POLY_cond $X=16.4 $Y=1.725
+ $X2=16.4 $Y2=2.465
r565 92 186 24.0971 $w=1.5e-07 $l=1.9e-07 $layer=POLY_cond $X=15.97 $Y=1.725
+ $X2=15.97 $Y2=1.535
r566 92 94 237.787 $w=1.5e-07 $l=7.4e-07 $layer=POLY_cond $X=15.97 $Y=1.725
+ $X2=15.97 $Y2=2.465
r567 89 182 24.0971 $w=1.5e-07 $l=1.9e-07 $layer=POLY_cond $X=15.54 $Y=1.725
+ $X2=15.54 $Y2=1.535
r568 89 91 237.787 $w=1.5e-07 $l=7.4e-07 $layer=POLY_cond $X=15.54 $Y=1.725
+ $X2=15.54 $Y2=2.465
r569 86 181 24.0971 $w=1.5e-07 $l=1.9e-07 $layer=POLY_cond $X=15.11 $Y=1.725
+ $X2=15.11 $Y2=1.535
r570 86 88 237.787 $w=1.5e-07 $l=7.4e-07 $layer=POLY_cond $X=15.11 $Y=1.725
+ $X2=15.11 $Y2=2.465
r571 83 177 24.0971 $w=1.5e-07 $l=1.9e-07 $layer=POLY_cond $X=14.68 $Y=1.725
+ $X2=14.68 $Y2=1.535
r572 83 85 237.787 $w=1.5e-07 $l=7.4e-07 $layer=POLY_cond $X=14.68 $Y=1.725
+ $X2=14.68 $Y2=2.465
r573 80 176 24.0971 $w=1.5e-07 $l=1.9e-07 $layer=POLY_cond $X=14.25 $Y=1.725
+ $X2=14.25 $Y2=1.535
r574 80 82 237.787 $w=1.5e-07 $l=7.4e-07 $layer=POLY_cond $X=14.25 $Y=1.725
+ $X2=14.25 $Y2=2.465
r575 77 174 26.5618 $w=3.72e-07 $l=2.84561e-07 $layer=POLY_cond $X=13.82
+ $Y=1.725 $X2=14.025 $Y2=1.535
r576 77 79 237.787 $w=1.5e-07 $l=7.4e-07 $layer=POLY_cond $X=13.82 $Y=1.725
+ $X2=13.82 $Y2=2.465
r577 76 113 20.4101 $w=1.5e-07 $l=7.5e-08 $layer=POLY_cond $X=13.465 $Y=1.65
+ $X2=13.39 $Y2=1.65
r578 75 77 27.4257 $w=3.72e-07 $l=1.06066e-07 $layer=POLY_cond $X=13.745 $Y=1.65
+ $X2=13.82 $Y2=1.725
r579 75 76 143.574 $w=1.5e-07 $l=2.8e-07 $layer=POLY_cond $X=13.745 $Y=1.65
+ $X2=13.465 $Y2=1.65
r580 72 113 5.30422 $w=1.5e-07 $l=7.5e-08 $layer=POLY_cond $X=13.39 $Y=1.725
+ $X2=13.39 $Y2=1.65
r581 72 74 237.787 $w=1.5e-07 $l=7.4e-07 $layer=POLY_cond $X=13.39 $Y=1.725
+ $X2=13.39 $Y2=2.465
r582 71 112 20.4101 $w=1.5e-07 $l=7.5e-08 $layer=POLY_cond $X=13.035 $Y=1.65
+ $X2=12.96 $Y2=1.65
r583 70 113 20.4101 $w=1.5e-07 $l=7.5e-08 $layer=POLY_cond $X=13.315 $Y=1.65
+ $X2=13.39 $Y2=1.65
r584 70 71 143.574 $w=1.5e-07 $l=2.8e-07 $layer=POLY_cond $X=13.315 $Y=1.65
+ $X2=13.035 $Y2=1.65
r585 67 112 5.30422 $w=1.5e-07 $l=7.5e-08 $layer=POLY_cond $X=12.96 $Y=1.725
+ $X2=12.96 $Y2=1.65
r586 67 69 237.787 $w=1.5e-07 $l=7.4e-07 $layer=POLY_cond $X=12.96 $Y=1.725
+ $X2=12.96 $Y2=2.465
r587 66 111 20.4101 $w=1.5e-07 $l=7.5e-08 $layer=POLY_cond $X=12.605 $Y=1.65
+ $X2=12.53 $Y2=1.65
r588 65 112 20.4101 $w=1.5e-07 $l=7.5e-08 $layer=POLY_cond $X=12.885 $Y=1.65
+ $X2=12.96 $Y2=1.65
r589 65 66 143.574 $w=1.5e-07 $l=2.8e-07 $layer=POLY_cond $X=12.885 $Y=1.65
+ $X2=12.605 $Y2=1.65
r590 62 111 5.30422 $w=1.5e-07 $l=7.5e-08 $layer=POLY_cond $X=12.53 $Y=1.725
+ $X2=12.53 $Y2=1.65
r591 62 64 237.787 $w=1.5e-07 $l=7.4e-07 $layer=POLY_cond $X=12.53 $Y=1.725
+ $X2=12.53 $Y2=2.465
r592 61 110 20.4101 $w=1.5e-07 $l=7.5e-08 $layer=POLY_cond $X=12.175 $Y=1.65
+ $X2=12.1 $Y2=1.65
r593 60 111 20.4101 $w=1.5e-07 $l=7.5e-08 $layer=POLY_cond $X=12.455 $Y=1.65
+ $X2=12.53 $Y2=1.65
r594 60 61 143.574 $w=1.5e-07 $l=2.8e-07 $layer=POLY_cond $X=12.455 $Y=1.65
+ $X2=12.175 $Y2=1.65
r595 57 110 5.30422 $w=1.5e-07 $l=7.5e-08 $layer=POLY_cond $X=12.1 $Y=1.725
+ $X2=12.1 $Y2=1.65
r596 57 59 237.787 $w=1.5e-07 $l=7.4e-07 $layer=POLY_cond $X=12.1 $Y=1.725
+ $X2=12.1 $Y2=2.465
r597 56 109 20.4101 $w=1.5e-07 $l=7.5e-08 $layer=POLY_cond $X=11.745 $Y=1.65
+ $X2=11.67 $Y2=1.65
r598 55 110 20.4101 $w=1.5e-07 $l=7.5e-08 $layer=POLY_cond $X=12.025 $Y=1.65
+ $X2=12.1 $Y2=1.65
r599 55 56 143.574 $w=1.5e-07 $l=2.8e-07 $layer=POLY_cond $X=12.025 $Y=1.65
+ $X2=11.745 $Y2=1.65
r600 52 109 5.30422 $w=1.5e-07 $l=7.5e-08 $layer=POLY_cond $X=11.67 $Y=1.725
+ $X2=11.67 $Y2=1.65
r601 52 54 237.787 $w=1.5e-07 $l=7.4e-07 $layer=POLY_cond $X=11.67 $Y=1.725
+ $X2=11.67 $Y2=2.465
r602 51 108 20.4101 $w=1.5e-07 $l=7.5e-08 $layer=POLY_cond $X=11.315 $Y=1.65
+ $X2=11.24 $Y2=1.65
r603 50 109 20.4101 $w=1.5e-07 $l=7.5e-08 $layer=POLY_cond $X=11.595 $Y=1.65
+ $X2=11.67 $Y2=1.65
r604 50 51 143.574 $w=1.5e-07 $l=2.8e-07 $layer=POLY_cond $X=11.595 $Y=1.65
+ $X2=11.315 $Y2=1.65
r605 47 108 5.30422 $w=1.5e-07 $l=7.5e-08 $layer=POLY_cond $X=11.24 $Y=1.725
+ $X2=11.24 $Y2=1.65
r606 47 49 237.787 $w=1.5e-07 $l=7.4e-07 $layer=POLY_cond $X=11.24 $Y=1.725
+ $X2=11.24 $Y2=2.465
r607 46 107 20.4101 $w=1.5e-07 $l=7.5e-08 $layer=POLY_cond $X=10.885 $Y=1.65
+ $X2=10.81 $Y2=1.65
r608 45 108 20.4101 $w=1.5e-07 $l=7.5e-08 $layer=POLY_cond $X=11.165 $Y=1.65
+ $X2=11.24 $Y2=1.65
r609 45 46 143.574 $w=1.5e-07 $l=2.8e-07 $layer=POLY_cond $X=11.165 $Y=1.65
+ $X2=10.885 $Y2=1.65
r610 42 107 5.30422 $w=1.5e-07 $l=7.5e-08 $layer=POLY_cond $X=10.81 $Y=1.725
+ $X2=10.81 $Y2=1.65
r611 42 44 237.787 $w=1.5e-07 $l=7.4e-07 $layer=POLY_cond $X=10.81 $Y=1.725
+ $X2=10.81 $Y2=2.465
r612 41 106 20.4101 $w=1.5e-07 $l=7.5e-08 $layer=POLY_cond $X=10.455 $Y=1.65
+ $X2=10.38 $Y2=1.65
r613 40 107 20.4101 $w=1.5e-07 $l=7.5e-08 $layer=POLY_cond $X=10.735 $Y=1.65
+ $X2=10.81 $Y2=1.65
r614 40 41 143.574 $w=1.5e-07 $l=2.8e-07 $layer=POLY_cond $X=10.735 $Y=1.65
+ $X2=10.455 $Y2=1.65
r615 37 106 5.30422 $w=1.5e-07 $l=7.5e-08 $layer=POLY_cond $X=10.38 $Y=1.725
+ $X2=10.38 $Y2=1.65
r616 37 39 237.787 $w=1.5e-07 $l=7.4e-07 $layer=POLY_cond $X=10.38 $Y=1.725
+ $X2=10.38 $Y2=2.465
r617 36 105 20.4101 $w=1.5e-07 $l=7.5e-08 $layer=POLY_cond $X=10.025 $Y=1.65
+ $X2=9.95 $Y2=1.65
r618 35 106 20.4101 $w=1.5e-07 $l=7.5e-08 $layer=POLY_cond $X=10.305 $Y=1.65
+ $X2=10.38 $Y2=1.65
r619 35 36 143.574 $w=1.5e-07 $l=2.8e-07 $layer=POLY_cond $X=10.305 $Y=1.65
+ $X2=10.025 $Y2=1.65
r620 32 105 5.30422 $w=1.5e-07 $l=7.5e-08 $layer=POLY_cond $X=9.95 $Y=1.725
+ $X2=9.95 $Y2=1.65
r621 32 34 237.787 $w=1.5e-07 $l=7.4e-07 $layer=POLY_cond $X=9.95 $Y=1.725
+ $X2=9.95 $Y2=2.465
r622 31 104 20.4101 $w=1.5e-07 $l=7.5e-08 $layer=POLY_cond $X=9.595 $Y=1.65
+ $X2=9.52 $Y2=1.65
r623 30 105 20.4101 $w=1.5e-07 $l=7.5e-08 $layer=POLY_cond $X=9.875 $Y=1.65
+ $X2=9.95 $Y2=1.65
r624 30 31 143.574 $w=1.5e-07 $l=2.8e-07 $layer=POLY_cond $X=9.875 $Y=1.65
+ $X2=9.595 $Y2=1.65
r625 27 104 5.30422 $w=1.5e-07 $l=7.5e-08 $layer=POLY_cond $X=9.52 $Y=1.725
+ $X2=9.52 $Y2=1.65
r626 27 29 237.787 $w=1.5e-07 $l=7.4e-07 $layer=POLY_cond $X=9.52 $Y=1.725
+ $X2=9.52 $Y2=2.465
r627 25 104 20.4101 $w=1.5e-07 $l=7.5e-08 $layer=POLY_cond $X=9.445 $Y=1.65
+ $X2=9.52 $Y2=1.65
r628 25 26 143.574 $w=1.5e-07 $l=2.8e-07 $layer=POLY_cond $X=9.445 $Y=1.65
+ $X2=9.165 $Y2=1.65
r629 22 26 26.9307 $w=1.5e-07 $l=1.06066e-07 $layer=POLY_cond $X=9.09 $Y=1.725
+ $X2=9.165 $Y2=1.65
r630 22 24 237.787 $w=1.5e-07 $l=7.4e-07 $layer=POLY_cond $X=9.09 $Y=1.725
+ $X2=9.09 $Y2=2.465
r631 20 171 394.83 $w=1.5e-07 $l=7.7e-07 $layer=POLY_cond $X=2.38 $Y=2.675
+ $X2=2.38 $Y2=1.905
r632 16 170 128.191 $w=1.5e-07 $l=2.5e-07 $layer=POLY_cond $X=2.34 $Y=1.325
+ $X2=2.34 $Y2=1.575
r633 14 16 26.9307 $w=1.5e-07 $l=1.06066e-07 $layer=POLY_cond $X=2.265 $Y=1.25
+ $X2=2.34 $Y2=1.325
r634 14 15 184.596 $w=1.5e-07 $l=3.6e-07 $layer=POLY_cond $X=2.265 $Y=1.25
+ $X2=1.905 $Y2=1.25
r635 10 15 26.9307 $w=1.5e-07 $l=1.06066e-07 $layer=POLY_cond $X=1.83 $Y=1.175
+ $X2=1.905 $Y2=1.25
r636 10 12 276.894 $w=1.5e-07 $l=5.4e-07 $layer=POLY_cond $X=1.83 $Y=1.175
+ $X2=1.83 $Y2=0.635
r637 3 128 400 $w=1.7e-07 $l=1.13284e-06 $layer=licon1_PDIFF $count=1 $X=7.72
+ $Y=1.835 $X2=7.86 $Y2=2.9
r638 3 126 400 $w=1.7e-07 $l=2.03286e-07 $layer=licon1_PDIFF $count=1 $X=7.72
+ $Y=1.835 $X2=7.86 $Y2=1.98
r639 2 135 400 $w=1.7e-07 $l=3.32716e-07 $layer=licon1_PDIFF $count=1 $X=1.085
+ $Y=1.835 $X2=1.225 $Y2=2.105
r640 2 116 400 $w=1.7e-07 $l=1.13284e-06 $layer=licon1_PDIFF $count=1 $X=1.085
+ $Y=1.835 $X2=1.225 $Y2=2.9
r641 1 137 182 $w=1.7e-07 $l=6.81175e-07 $layer=licon1_NDIFF $count=1 $X=8.63
+ $Y=0.235 $X2=8.85 $Y2=0.815
.ends

.subckt PM_SKY130_FD_SC_LP__BUSDRIVERNOVLP2_20%A_381_85# 1 2 7 9 11 12 14 16 17
+ 20 24 26 27 28 29 33 35 37 38
c115 38 0 1.45114e-19 $X=2.965 $Y=1.65
c116 37 0 1.87795e-19 $X=2.965 $Y=1.575
c117 35 0 1.87887e-19 $X=2.965 $Y=1.74
c118 29 0 1.32904e-19 $X=2.33 $Y=2.17
c119 27 0 1.51585e-19 $X=2.245 $Y=1.285
c120 20 0 9.82022e-20 $X=2.16 $Y=0.78
c121 9 0 6.10011e-20 $X=3.675 $Y=1.725
r122 36 38 15.7375 $w=3.3e-07 $l=9e-08 $layer=POLY_cond $X=2.965 $Y=1.74
+ $X2=2.965 $Y2=1.65
r123 35 37 8.46218 $w=3.28e-07 $l=1.65e-07 $layer=LI1_cond $X=2.965 $Y=1.74
+ $X2=2.965 $Y2=1.575
r124 35 36 145.28 $w=1.7e-07 $l=1.7e-07 $layer=licon1_POLY $count=1 $X=2.965
+ $Y=1.74 $X2=2.965 $Y2=1.74
r125 33 35 12.0483 $w=3.28e-07 $l=3.45e-07 $layer=LI1_cond $X=2.965 $Y=2.085
+ $X2=2.965 $Y2=1.74
r126 30 37 13.3743 $w=1.68e-07 $l=2.05e-07 $layer=LI1_cond $X=2.885 $Y=1.37
+ $X2=2.885 $Y2=1.575
r127 28 33 7.76618 $w=1.7e-07 $l=2.03101e-07 $layer=LI1_cond $X=2.8 $Y=2.17
+ $X2=2.965 $Y2=2.085
r128 28 29 30.6631 $w=1.68e-07 $l=4.7e-07 $layer=LI1_cond $X=2.8 $Y=2.17
+ $X2=2.33 $Y2=2.17
r129 26 30 6.81649 $w=1.7e-07 $l=1.20208e-07 $layer=LI1_cond $X=2.8 $Y=1.285
+ $X2=2.885 $Y2=1.37
r130 26 27 36.2086 $w=1.68e-07 $l=5.55e-07 $layer=LI1_cond $X=2.8 $Y=1.285
+ $X2=2.245 $Y2=1.285
r131 22 29 7.76618 $w=1.7e-07 $l=2.03101e-07 $layer=LI1_cond $X=2.165 $Y=2.255
+ $X2=2.33 $Y2=2.17
r132 22 24 5.06376 $w=3.28e-07 $l=1.45e-07 $layer=LI1_cond $X=2.165 $Y=2.255
+ $X2=2.165 $Y2=2.4
r133 18 27 7.14316 $w=1.7e-07 $l=1.62019e-07 $layer=LI1_cond $X=2.12 $Y=1.2
+ $X2=2.245 $Y2=1.285
r134 18 20 19.361 $w=2.48e-07 $l=4.2e-07 $layer=LI1_cond $X=2.12 $Y=1.2 $X2=2.12
+ $Y2=0.78
r135 14 16 237.787 $w=1.5e-07 $l=7.4e-07 $layer=POLY_cond $X=4.105 $Y=1.725
+ $X2=4.105 $Y2=2.465
r136 13 17 20.4101 $w=1.5e-07 $l=7.5e-08 $layer=POLY_cond $X=3.75 $Y=1.65
+ $X2=3.675 $Y2=1.65
r137 12 14 26.9307 $w=1.5e-07 $l=1.06066e-07 $layer=POLY_cond $X=4.03 $Y=1.65
+ $X2=4.105 $Y2=1.725
r138 12 13 143.574 $w=1.5e-07 $l=2.8e-07 $layer=POLY_cond $X=4.03 $Y=1.65
+ $X2=3.75 $Y2=1.65
r139 9 17 5.30422 $w=1.5e-07 $l=7.5e-08 $layer=POLY_cond $X=3.675 $Y=1.725
+ $X2=3.675 $Y2=1.65
r140 9 11 237.787 $w=1.5e-07 $l=7.4e-07 $layer=POLY_cond $X=3.675 $Y=1.725
+ $X2=3.675 $Y2=2.465
r141 8 38 21.2229 $w=1.5e-07 $l=1.65e-07 $layer=POLY_cond $X=3.13 $Y=1.65
+ $X2=2.965 $Y2=1.65
r142 7 17 20.4101 $w=1.5e-07 $l=7.5e-08 $layer=POLY_cond $X=3.6 $Y=1.65
+ $X2=3.675 $Y2=1.65
r143 7 8 241 $w=1.5e-07 $l=4.7e-07 $layer=POLY_cond $X=3.6 $Y=1.65 $X2=3.13
+ $Y2=1.65
r144 2 24 300 $w=1.7e-07 $l=2.03286e-07 $layer=licon1_PDIFF $count=2 $X=2.025
+ $Y=2.255 $X2=2.165 $Y2=2.4
r145 1 20 182 $w=1.7e-07 $l=4.65349e-07 $layer=licon1_NDIFF $count=1 $X=1.905
+ $Y=0.425 $X2=2.16 $Y2=0.78
.ends

.subckt PM_SKY130_FD_SC_LP__BUSDRIVERNOVLP2_20%A_726_47# 1 2 3 12 16 20 24 28 32
+ 34 36 37 39 40 42 43 45 46 47 48 50 51 53 55 56 58 60 61 63 65 66 68 70 71 73
+ 75 78 79 80 81 82 83 84 87 91 93 95 99 100 101 102 103 104 105 119 130 131 132
+ 135 140 145 150 155 176
c333 131 0 1.51162e-19 $X=6.675 $Y=1.16
c334 103 0 4.45833e-21 $X=9.6 $Y=1.295
c335 79 0 1.44143e-19 $X=6.675 $Y=1.665
r336 154 155 145.28 $w=1.7e-07 $l=1.7e-07 $layer=licon1_POLY $count=1 $X=13.185
+ $Y=1.2 $X2=13.185 $Y2=1.2
r337 152 154 31.5262 $w=3.44e-07 $l=2.25e-07 $layer=POLY_cond $X=12.96 $Y=1.175
+ $X2=13.185 $Y2=1.175
r338 151 152 60.25 $w=3.44e-07 $l=4.3e-07 $layer=POLY_cond $X=12.53 $Y=1.175
+ $X2=12.96 $Y2=1.175
r339 149 151 28.7238 $w=3.44e-07 $l=2.05e-07 $layer=POLY_cond $X=12.325 $Y=1.175
+ $X2=12.53 $Y2=1.175
r340 149 150 145.28 $w=1.7e-07 $l=1.7e-07 $layer=licon1_POLY $count=1 $X=12.325
+ $Y=1.2 $X2=12.325 $Y2=1.2
r341 147 149 31.5262 $w=3.44e-07 $l=2.25e-07 $layer=POLY_cond $X=12.1 $Y=1.175
+ $X2=12.325 $Y2=1.175
r342 144 145 145.28 $w=1.7e-07 $l=1.7e-07 $layer=licon1_POLY $count=1 $X=11.445
+ $Y=1.2 $X2=11.445 $Y2=1.2
r343 139 140 145.28 $w=1.7e-07 $l=1.7e-07 $layer=licon1_POLY $count=1 $X=10.605
+ $Y=1.2 $X2=10.605 $Y2=1.2
r344 134 135 145.28 $w=1.7e-07 $l=1.7e-07 $layer=licon1_POLY $count=1 $X=9.745
+ $Y=1.2 $X2=9.745 $Y2=1.2
r345 132 134 97.9223 $w=3.3e-07 $l=5.6e-07 $layer=POLY_cond $X=10.305 $Y=1.2
+ $X2=9.745 $Y2=1.2
r346 130 131 72.64 $w=1.7e-07 $l=3.4e-07 $layer=licon1_POLY $count=2 $X=6.675
+ $Y=1.16 $X2=6.675 $Y2=1.16
r347 128 131 3.48112 $w=6.68e-07 $l=1.95e-07 $layer=LI1_cond $X=6.48 $Y=1.33
+ $X2=6.675 $Y2=1.33
r348 127 128 9.3 $w=1.7e-07 $l=1.7e-07 $layer=mcon $count=1 $X=6.48 $Y=1.295
+ $X2=6.48 $Y2=1.295
r349 124 176 11.9227 $w=1.98e-07 $l=2.15e-07 $layer=LI1_cond $X=5.535 $Y=1.295
+ $X2=5.535 $Y2=1.08
r350 123 124 9.3 $w=1.7e-07 $l=1.7e-07 $layer=mcon $count=1 $X=5.52 $Y=1.295
+ $X2=5.52 $Y2=1.295
r351 119 155 9.3 $w=1.7e-07 $l=1.7e-07 $layer=mcon $count=1 $X=13.185 $Y=1.295
+ $X2=13.185 $Y2=1.295
r352 116 119 0.55178 $w=2.3e-07 $l=8.6e-07 $layer=MET1_cond $X=12.325 $Y=1.295
+ $X2=13.185 $Y2=1.295
r353 116 150 9.3 $w=1.7e-07 $l=1.7e-07 $layer=mcon $count=1 $X=12.325 $Y=1.295
+ $X2=12.325 $Y2=1.295
r354 113 116 0.55178 $w=2.3e-07 $l=8.6e-07 $layer=MET1_cond $X=11.465 $Y=1.295
+ $X2=12.325 $Y2=1.295
r355 113 145 9.3 $w=1.7e-07 $l=1.7e-07 $layer=mcon $count=1 $X=11.465 $Y=1.295
+ $X2=11.465 $Y2=1.295
r356 110 113 0.55178 $w=2.3e-07 $l=8.6e-07 $layer=MET1_cond $X=10.605 $Y=1.295
+ $X2=11.465 $Y2=1.295
r357 110 140 9.3 $w=1.7e-07 $l=1.7e-07 $layer=mcon $count=1 $X=10.605 $Y=1.295
+ $X2=10.605 $Y2=1.295
r358 107 110 0.55178 $w=2.3e-07 $l=8.6e-07 $layer=MET1_cond $X=9.745 $Y=1.295
+ $X2=10.605 $Y2=1.295
r359 107 135 9.3 $w=1.7e-07 $l=1.7e-07 $layer=mcon $count=1 $X=9.745 $Y=1.295
+ $X2=9.745 $Y2=1.295
r360 105 107 0.0192481 $w=2.3e-07 $l=3e-08 $layer=MET1_cond $X=9.715 $Y=1.295
+ $X2=9.745 $Y2=1.295
r361 104 127 0.115467 $w=2.3e-07 $l=1.45e-07 $layer=MET1_cond $X=6.625 $Y=1.295
+ $X2=6.48 $Y2=1.295
r362 103 105 0.0850015 $w=2.3e-07 $l=1.15e-07 $layer=MET1_cond $X=9.6 $Y=1.295
+ $X2=9.715 $Y2=1.295
r363 103 104 3.68192 $w=1.4e-07 $l=2.975e-06 $layer=MET1_cond $X=9.6 $Y=1.295
+ $X2=6.625 $Y2=1.295
r364 102 123 0.115467 $w=2.3e-07 $l=1.45e-07 $layer=MET1_cond $X=5.665 $Y=1.295
+ $X2=5.52 $Y2=1.295
r365 101 127 0.115467 $w=2.3e-07 $l=1.45e-07 $layer=MET1_cond $X=6.335 $Y=1.295
+ $X2=6.48 $Y2=1.295
r366 101 102 0.829206 $w=1.4e-07 $l=6.7e-07 $layer=MET1_cond $X=6.335 $Y=1.295
+ $X2=5.665 $Y2=1.295
r367 96 99 1.34256 $w=1.7e-07 $l=8.5e-08 $layer=LI1_cond $X=3.855 $Y=1.08
+ $X2=3.77 $Y2=1.08
r368 96 98 79.9198 $w=1.68e-07 $l=1.225e-06 $layer=LI1_cond $X=3.855 $Y=1.08
+ $X2=5.08 $Y2=1.08
r369 95 176 1.68994 $w=1.7e-07 $l=1e-07 $layer=LI1_cond $X=5.435 $Y=1.08
+ $X2=5.535 $Y2=1.08
r370 95 98 23.1604 $w=1.68e-07 $l=3.55e-07 $layer=LI1_cond $X=5.435 $Y=1.08
+ $X2=5.08 $Y2=1.08
r371 91 100 7.71909 $w=2.88e-07 $l=1.45e-07 $layer=LI1_cond $X=3.83 $Y=1.96
+ $X2=3.83 $Y2=1.815
r372 91 93 0.794788 $w=2.88e-07 $l=2e-08 $layer=LI1_cond $X=3.83 $Y=1.96
+ $X2=3.83 $Y2=1.98
r373 89 99 5.16603 $w=1.7e-07 $l=8.5e-08 $layer=LI1_cond $X=3.77 $Y=1.165
+ $X2=3.77 $Y2=1.08
r374 89 100 42.4064 $w=1.68e-07 $l=6.5e-07 $layer=LI1_cond $X=3.77 $Y=1.165
+ $X2=3.77 $Y2=1.815
r375 85 99 5.16603 $w=1.7e-07 $l=8.5e-08 $layer=LI1_cond $X=3.77 $Y=0.995
+ $X2=3.77 $Y2=1.08
r376 85 87 9.13369 $w=1.68e-07 $l=1.4e-07 $layer=LI1_cond $X=3.77 $Y=0.995
+ $X2=3.77 $Y2=0.855
r377 78 130 59.4528 $w=3.3e-07 $l=3.4e-07 $layer=POLY_cond $X=6.675 $Y=1.5
+ $X2=6.675 $Y2=1.16
r378 78 79 41.8716 $w=3.3e-07 $l=1.65e-07 $layer=POLY_cond $X=6.675 $Y=1.5
+ $X2=6.675 $Y2=1.665
r379 77 130 41.8716 $w=3.3e-07 $l=1.65e-07 $layer=POLY_cond $X=6.675 $Y=0.995
+ $X2=6.675 $Y2=1.16
r380 73 75 138.173 $w=1.5e-07 $l=4.3e-07 $layer=POLY_cond $X=15.97 $Y=0.985
+ $X2=15.97 $Y2=0.555
r381 72 84 20.4101 $w=1.5e-07 $l=7.5e-08 $layer=POLY_cond $X=15.615 $Y=1.06
+ $X2=15.54 $Y2=1.06
r382 71 73 26.9307 $w=1.5e-07 $l=1.06066e-07 $layer=POLY_cond $X=15.895 $Y=1.06
+ $X2=15.97 $Y2=0.985
r383 71 72 143.574 $w=1.5e-07 $l=2.8e-07 $layer=POLY_cond $X=15.895 $Y=1.06
+ $X2=15.615 $Y2=1.06