* File: sky130_fd_sc_lp__dfrtp_4.pex.spice
* Created: Wed Sep  2 09:43:54 2020
* Program "Calibre xRC"
* Version "v2018.4_34.26"
* Nominal Temperature: 27C
* Circuit Temperature: 27C
* 
.subckt PM_SKY130_FD_SC_LP__DFRTP_4%CLK 3 7 12 13 14 15 16 21
r38 21 22 72.64 $w=1.7e-07 $l=3.4e-07 $layer=licon1_POLY $count=2 $X=0.385
+ $Y=1.535 $X2=0.385 $Y2=1.535
r39 15 16 11.0754 $w=3.83e-07 $l=3.7e-07 $layer=LI1_cond $X=0.277 $Y=1.665
+ $X2=0.277 $Y2=2.035
r40 15 22 3.89137 $w=3.83e-07 $l=1.3e-07 $layer=LI1_cond $X=0.277 $Y=1.665
+ $X2=0.277 $Y2=1.535
r41 14 22 7.18406 $w=3.83e-07 $l=2.4e-07 $layer=LI1_cond $X=0.277 $Y=1.295
+ $X2=0.277 $Y2=1.535
r42 12 21 62.0758 $w=3.3e-07 $l=3.55e-07 $layer=POLY_cond $X=0.385 $Y=1.89
+ $X2=0.385 $Y2=1.535
r43 12 13 43.5886 $w=3.3e-07 $l=1.5e-07 $layer=POLY_cond $X=0.435 $Y=1.89
+ $X2=0.435 $Y2=2.04
r44 10 21 46.2115 $w=3.3e-07 $l=1.65e-07 $layer=POLY_cond $X=0.385 $Y=1.37
+ $X2=0.385 $Y2=1.535
r45 7 13 302.532 $w=1.5e-07 $l=5.9e-07 $layer=POLY_cond $X=0.575 $Y=2.63
+ $X2=0.575 $Y2=2.04
r46 3 10 364.064 $w=1.5e-07 $l=7.1e-07 $layer=POLY_cond $X=0.475 $Y=0.66
+ $X2=0.475 $Y2=1.37
.ends

.subckt PM_SKY130_FD_SC_LP__DFRTP_4%A_27_90# 1 2 9 13 16 20 24 28 31 35 36 37 42
+ 43 45 47 48 49 51 52 53 55 56 57 60 62 66 67 70 71 74 75 76 78 79 80 82 83 89
+ 91 93 94 99 109
c293 66 0 1.34651e-19 $X=6.22 $Y=1.79
c294 62 0 1.44909e-19 $X=6.315 $Y=0.61
c295 49 0 1.11939e-19 $X=1.205 $Y=0.375
c296 43 0 1.55256e-19 $X=0.955 $Y=1.145
c297 16 0 2.0335e-20 $X=3.37 $Y=0.805
c298 9 0 6.36774e-20 $X=1.005 $Y=2.63
r299 94 109 46.2115 $w=3.3e-07 $l=1.65e-07 $layer=POLY_cond $X=7.26 $Y=0.39
+ $X2=7.26 $Y2=0.555
r300 93 96 7.68295 $w=3.28e-07 $l=2.2e-07 $layer=LI1_cond $X=7.26 $Y=0.39
+ $X2=7.26 $Y2=0.61
r301 93 94 145.28 $w=1.7e-07 $l=1.7e-07 $layer=licon1_POLY $count=1 $X=7.26
+ $Y=0.39 $X2=7.26 $Y2=0.39
r302 87 89 11.7433 $w=1.68e-07 $l=1.8e-07 $layer=LI1_cond $X=6.22 $Y=1.33
+ $X2=6.4 $Y2=1.33
r303 83 85 10.4385 $w=1.68e-07 $l=1.6e-07 $layer=LI1_cond $X=4.225 $Y=0.45
+ $X2=4.225 $Y2=0.61
r304 79 103 46.2115 $w=3.3e-07 $l=1.65e-07 $layer=POLY_cond $X=3.46 $Y=1.4
+ $X2=3.46 $Y2=1.565
r305 79 102 46.2115 $w=3.3e-07 $l=1.65e-07 $layer=POLY_cond $X=3.46 $Y=1.4
+ $X2=3.46 $Y2=1.235
r306 78 80 9.16686 $w=2.23e-07 $l=1.65e-07 $layer=LI1_cond $X=3.477 $Y=1.4
+ $X2=3.477 $Y2=1.235
r307 78 79 145.28 $w=1.7e-07 $l=1.7e-07 $layer=licon1_POLY $count=1 $X=3.46
+ $Y=1.4 $X2=3.46 $Y2=1.4
r308 72 91 5.16603 $w=1.7e-07 $l=8.5e-08 $layer=LI1_cond $X=6.485 $Y=0.61
+ $X2=6.4 $Y2=0.61
r309 71 96 4.62375 $w=1.7e-07 $l=1.65e-07 $layer=LI1_cond $X=7.095 $Y=0.61
+ $X2=7.26 $Y2=0.61
r310 71 72 39.7968 $w=1.68e-07 $l=6.1e-07 $layer=LI1_cond $X=7.095 $Y=0.61
+ $X2=6.485 $Y2=0.61
r311 70 89 0.716491 $w=1.7e-07 $l=8.5e-08 $layer=LI1_cond $X=6.4 $Y=1.245
+ $X2=6.4 $Y2=1.33
r312 69 91 1.34256 $w=1.7e-07 $l=8.5e-08 $layer=LI1_cond $X=6.4 $Y=0.695 $X2=6.4
+ $Y2=0.61
r313 69 70 35.8824 $w=1.68e-07 $l=5.5e-07 $layer=LI1_cond $X=6.4 $Y=0.695
+ $X2=6.4 $Y2=1.245
r314 67 106 46.2115 $w=3.3e-07 $l=1.65e-07 $layer=POLY_cond $X=6.22 $Y=1.79
+ $X2=6.22 $Y2=1.955
r315 66 67 145.28 $w=1.7e-07 $l=1.7e-07 $layer=licon1_POLY $count=1 $X=6.22
+ $Y=1.79 $X2=6.22 $Y2=1.79
r316 64 87 0.0262452 $w=1.9e-07 $l=8.5e-08 $layer=LI1_cond $X=6.22 $Y=1.415
+ $X2=6.22 $Y2=1.33
r317 64 66 21.89 $w=1.88e-07 $l=3.75e-07 $layer=LI1_cond $X=6.22 $Y=1.415
+ $X2=6.22 $Y2=1.79
r318 63 85 0.716491 $w=1.7e-07 $l=8.5e-08 $layer=LI1_cond $X=4.31 $Y=0.61
+ $X2=4.225 $Y2=0.61
r319 62 91 5.16603 $w=1.7e-07 $l=8.5e-08 $layer=LI1_cond $X=6.315 $Y=0.61
+ $X2=6.4 $Y2=0.61
r320 62 63 130.807 $w=1.68e-07 $l=2.005e-06 $layer=LI1_cond $X=6.315 $Y=0.61
+ $X2=4.31 $Y2=0.61
r321 61 82 5.16603 $w=1.7e-07 $l=8.5e-08 $layer=LI1_cond $X=3.59 $Y=0.45
+ $X2=3.505 $Y2=0.45
r322 60 83 0.716491 $w=1.7e-07 $l=8.5e-08 $layer=LI1_cond $X=4.14 $Y=0.45
+ $X2=4.225 $Y2=0.45
r323 60 61 35.8824 $w=1.68e-07 $l=5.5e-07 $layer=LI1_cond $X=4.14 $Y=0.45
+ $X2=3.59 $Y2=0.45
r324 58 82 1.34256 $w=1.7e-07 $l=8.5e-08 $layer=LI1_cond $X=3.505 $Y=0.535
+ $X2=3.505 $Y2=0.45
r325 58 80 45.6684 $w=1.68e-07 $l=7e-07 $layer=LI1_cond $X=3.505 $Y=0.535
+ $X2=3.505 $Y2=1.235
r326 56 82 5.16603 $w=1.7e-07 $l=8.5e-08 $layer=LI1_cond $X=3.42 $Y=0.45
+ $X2=3.505 $Y2=0.45
r327 56 57 39.1444 $w=1.68e-07 $l=6e-07 $layer=LI1_cond $X=3.42 $Y=0.45 $X2=2.82
+ $Y2=0.45
r328 54 57 6.81649 $w=1.7e-07 $l=1.20208e-07 $layer=LI1_cond $X=2.735 $Y=0.535
+ $X2=2.82 $Y2=0.45
r329 54 55 35.8824 $w=1.68e-07 $l=5.5e-07 $layer=LI1_cond $X=2.735 $Y=0.535
+ $X2=2.735 $Y2=1.085
r330 52 55 6.81649 $w=1.7e-07 $l=1.20208e-07 $layer=LI1_cond $X=2.65 $Y=1.17
+ $X2=2.735 $Y2=1.085
r331 52 53 38.1658 $w=1.68e-07 $l=5.85e-07 $layer=LI1_cond $X=2.65 $Y=1.17
+ $X2=2.065 $Y2=1.17
r332 51 53 6.81649 $w=1.7e-07 $l=1.20208e-07 $layer=LI1_cond $X=1.98 $Y=1.085
+ $X2=2.065 $Y2=1.17
r333 50 51 40.7754 $w=1.68e-07 $l=6.25e-07 $layer=LI1_cond $X=1.98 $Y=0.46
+ $X2=1.98 $Y2=1.085
r334 48 50 6.81649 $w=1.7e-07 $l=1.20208e-07 $layer=LI1_cond $X=1.895 $Y=0.375
+ $X2=1.98 $Y2=0.46
r335 48 49 45.016 $w=1.68e-07 $l=6.9e-07 $layer=LI1_cond $X=1.895 $Y=0.375
+ $X2=1.205 $Y2=0.375
r336 47 75 3.10218 $w=3.05e-07 $l=1.72337e-07 $layer=LI1_cond $X=1.12 $Y=0.86
+ $X2=0.985 $Y2=0.945
r337 46 49 6.81649 $w=1.7e-07 $l=1.20208e-07 $layer=LI1_cond $X=1.12 $Y=0.46
+ $X2=1.205 $Y2=0.375
r338 46 47 26.0963 $w=1.68e-07 $l=4e-07 $layer=LI1_cond $X=1.12 $Y=0.46 $X2=1.12
+ $Y2=0.86
r339 45 76 42.4064 $w=1.68e-07 $l=6.5e-07 $layer=LI1_cond $X=0.85 $Y=2.3
+ $X2=0.85 $Y2=1.65
r340 43 100 79.8068 $w=6e-07 $l=5.05e-07 $layer=POLY_cond $X=1.09 $Y=1.145
+ $X2=1.09 $Y2=1.65
r341 43 99 49.4885 $w=6e-07 $l=1.65e-07 $layer=POLY_cond $X=1.09 $Y=1.145
+ $X2=1.09 $Y2=0.98
r342 42 43 72.64 $w=1.7e-07 $l=3.4e-07 $layer=licon1_POLY $count=2 $X=0.955
+ $Y=1.145 $X2=0.955 $Y2=1.145
r343 40 76 10.2759 $w=4.38e-07 $l=2.2e-07 $layer=LI1_cond $X=0.985 $Y=1.43
+ $X2=0.985 $Y2=1.65
r344 40 42 7.46469 $w=4.38e-07 $l=2.85e-07 $layer=LI1_cond $X=0.985 $Y=1.43
+ $X2=0.985 $Y2=1.145
r345 39 75 3.10218 $w=3.05e-07 $l=8.5e-08 $layer=LI1_cond $X=0.985 $Y=1.03
+ $X2=0.985 $Y2=0.945
r346 39 42 3.01207 $w=4.38e-07 $l=1.15e-07 $layer=LI1_cond $X=0.985 $Y=1.03
+ $X2=0.985 $Y2=1.145
r347 38 74 4.36088 $w=1.7e-07 $l=1.3e-07 $layer=LI1_cond $X=0.455 $Y=2.385
+ $X2=0.325 $Y2=2.385
r348 37 45 6.81649 $w=1.7e-07 $l=1.20208e-07 $layer=LI1_cond $X=0.765 $Y=2.385
+ $X2=0.85 $Y2=2.3
r349 37 38 20.2246 $w=1.68e-07 $l=3.1e-07 $layer=LI1_cond $X=0.765 $Y=2.385
+ $X2=0.455 $Y2=2.385
r350 35 75 3.51065 $w=1.7e-07 $l=2.2e-07 $layer=LI1_cond $X=0.765 $Y=0.945
+ $X2=0.985 $Y2=0.945
r351 35 36 26.7487 $w=1.68e-07 $l=4.1e-07 $layer=LI1_cond $X=0.765 $Y=0.945
+ $X2=0.355 $Y2=0.945
r352 29 36 7.21222 $w=1.7e-07 $l=1.67183e-07 $layer=LI1_cond $X=0.225 $Y=0.86
+ $X2=0.355 $Y2=0.945
r353 29 31 8.86495 $w=2.58e-07 $l=2e-07 $layer=LI1_cond $X=0.225 $Y=0.86
+ $X2=0.225 $Y2=0.66
r354 28 109 102.827 $w=1.5e-07 $l=3.2e-07 $layer=POLY_cond $X=7.17 $Y=0.875
+ $X2=7.17 $Y2=0.555
r355 24 106 364.064 $w=1.5e-07 $l=7.1e-07 $layer=POLY_cond $X=6.2 $Y=2.665
+ $X2=6.2 $Y2=1.955
r356 20 103 676.851 $w=1.5e-07 $l=1.32e-06 $layer=POLY_cond $X=3.37 $Y=2.885
+ $X2=3.37 $Y2=1.565
r357 16 102 220.489 $w=1.5e-07 $l=4.3e-07 $layer=POLY_cond $X=3.37 $Y=0.805
+ $X2=3.37 $Y2=1.235
r358 13 99 102.827 $w=1.5e-07 $l=3.2e-07 $layer=POLY_cond $X=1.315 $Y=0.66
+ $X2=1.315 $Y2=0.98
r359 9 100 502.511 $w=1.5e-07 $l=9.8e-07 $layer=POLY_cond $X=1.005 $Y=2.63
+ $X2=1.005 $Y2=1.65
r360 2 74 300 $w=1.7e-07 $l=2.08327e-07 $layer=licon1_PDIFF $count=2 $X=0.235
+ $Y=2.31 $X2=0.36 $Y2=2.465
r361 1 31 182 $w=1.7e-07 $l=2.65236e-07 $layer=licon1_NDIFF $count=1 $X=0.135
+ $Y=0.45 $X2=0.26 $Y2=0.66
.ends

.subckt PM_SKY130_FD_SC_LP__DFRTP_4%D 5 9 11 12 13 14 15 16
c53 16 0 3.16933e-19 $X=2.64 $Y=1.665
c54 13 0 1.5785e-19 $X=2.455 $Y=2.175
r55 20 21 145.28 $w=1.7e-07 $l=1.7e-07 $layer=licon1_POLY $count=1 $X=2.53
+ $Y=1.62 $X2=2.53 $Y2=1.62
r56 16 21 3.20933 $w=3.93e-07 $l=1.1e-07 $layer=LI1_cond $X=2.64 $Y=1.652
+ $X2=2.53 $Y2=1.652
r57 15 21 10.795 $w=3.93e-07 $l=3.7e-07 $layer=LI1_cond $X=2.16 $Y=1.652
+ $X2=2.53 $Y2=1.652
r58 14 20 58.5785 $w=3.3e-07 $l=3.35e-07 $layer=POLY_cond $X=2.865 $Y=1.62
+ $X2=2.53 $Y2=1.62
r59 12 13 58.3064 $w=1.8e-07 $l=1.5e-07 $layer=POLY_cond $X=2.455 $Y=2.025
+ $X2=2.455 $Y2=2.175
r60 11 20 2.62292 $w=3.3e-07 $l=1.5e-08 $layer=POLY_cond $X=2.515 $Y=1.62
+ $X2=2.53 $Y2=1.62
r61 7 14 32.1775 $w=3.3e-07 $l=1.98997e-07 $layer=POLY_cond $X=2.94 $Y=1.455
+ $X2=2.865 $Y2=1.62
r62 7 9 333.298 $w=1.5e-07 $l=6.5e-07 $layer=POLY_cond $X=2.94 $Y=1.455 $X2=2.94
+ $Y2=0.805
r63 5 13 364.064 $w=1.5e-07 $l=7.1e-07 $layer=POLY_cond $X=2.47 $Y=2.885
+ $X2=2.47 $Y2=2.175
r64 1 11 32.1775 $w=3.3e-07 $l=1.98997e-07 $layer=POLY_cond $X=2.44 $Y=1.785
+ $X2=2.515 $Y2=1.62
r65 1 12 123.064 $w=1.5e-07 $l=2.4e-07 $layer=POLY_cond $X=2.44 $Y=1.785
+ $X2=2.44 $Y2=2.025
.ends

.subckt PM_SKY130_FD_SC_LP__DFRTP_4%A_216_462# 1 2 9 13 17 19 20 22 25 31 35 39
+ 40 42 43 44 45 54 55 58 59 68 82
c221 59 0 1.3691e-19 $X=4 $Y=1.31
c222 55 0 7.51852e-20 $X=6.96 $Y=2.035
c223 45 0 1.25615e-19 $X=4.225 $Y=2.035
c224 20 0 2.97539e-19 $X=6.385 $Y=1.235
c225 17 0 6.79976e-20 $X=6.31 $Y=0.625
c226 13 0 2.77228e-19 $X=4.07 $Y=0.805
r227 66 68 30.6007 $w=3.3e-07 $l=1.75e-07 $layer=POLY_cond $X=6.825 $Y=2.03
+ $X2=7 $Y2=2.03
r228 64 66 7.86876 $w=3.3e-07 $l=4.5e-08 $layer=POLY_cond $X=6.78 $Y=2.03
+ $X2=6.825 $Y2=2.03
r229 58 59 72.64 $w=1.7e-07 $l=3.4e-07 $layer=licon1_POLY $count=2 $X=4 $Y=1.31
+ $X2=4 $Y2=1.31
r230 55 68 145.28 $w=1.7e-07 $l=1.7e-07 $layer=licon1_POLY $count=1 $X=7 $Y=2.03
+ $X2=7 $Y2=2.03
r231 54 55 9.3 $w=1.7e-07 $l=1.7e-07 $layer=mcon $count=1 $X=6.96 $Y=2.035
+ $X2=6.96 $Y2=2.035
r232 52 59 22.5817 $w=3.68e-07 $l=7.25e-07 $layer=LI1_cond $X=4.02 $Y=2.035
+ $X2=4.02 $Y2=1.31
r233 51 52 9.3 $w=1.7e-07 $l=1.7e-07 $layer=mcon $count=1 $X=4.08 $Y=2.035
+ $X2=4.08 $Y2=2.035
r234 48 80 1.24964 $w=4.13e-07 $l=4.5e-08 $layer=LI1_cond $X=1.2 $Y=2.077
+ $X2=1.245 $Y2=2.077
r235 47 48 9.3 $w=1.7e-07 $l=1.7e-07 $layer=mcon $count=1 $X=1.2 $Y=2.035
+ $X2=1.2 $Y2=2.035
r236 45 51 0.115467 $w=2.3e-07 $l=1.45e-07 $layer=MET1_cond $X=4.225 $Y=2.035
+ $X2=4.08 $Y2=2.035
r237 44 54 0.115467 $w=2.3e-07 $l=1.45e-07 $layer=MET1_cond $X=6.815 $Y=2.035
+ $X2=6.96 $Y2=2.035
r238 44 45 3.20544 $w=1.4e-07 $l=2.59e-06 $layer=MET1_cond $X=6.815 $Y=2.035
+ $X2=4.225 $Y2=2.035
r239 43 47 0.115467 $w=2.3e-07 $l=1.45e-07 $layer=MET1_cond $X=1.345 $Y=2.035
+ $X2=1.2 $Y2=2.035
r240 42 51 0.115467 $w=2.3e-07 $l=1.45e-07 $layer=MET1_cond $X=3.935 $Y=2.035
+ $X2=4.08 $Y2=2.035
r241 42 43 3.20544 $w=1.4e-07 $l=2.59e-06 $layer=MET1_cond $X=3.935 $Y=2.035
+ $X2=1.345 $Y2=2.035
r242 40 63 46.2115 $w=3.3e-07 $l=1.65e-07 $layer=POLY_cond $X=2.92 $Y=2.19
+ $X2=2.92 $Y2=2.355
r243 39 82 66.8227 $w=1.98e-07 $l=1.205e-06 $layer=LI1_cond $X=2.92 $Y=2.185
+ $X2=1.715 $Y2=2.185
r244 39 40 145.28 $w=1.7e-07 $l=1.7e-07 $layer=licon1_POLY $count=1 $X=2.92
+ $Y=2.19 $X2=2.92 $Y2=2.19
r245 33 82 7.68553 $w=4.13e-07 $l=1.65e-07 $layer=LI1_cond $X=1.55 $Y=2.077
+ $X2=1.715 $Y2=2.077
r246 33 80 8.46976 $w=4.13e-07 $l=3.05e-07 $layer=LI1_cond $X=1.55 $Y=2.077
+ $X2=1.245 $Y2=2.077
r247 33 35 39.9863 $w=3.28e-07 $l=1.145e-06 $layer=LI1_cond $X=1.55 $Y=1.87
+ $X2=1.55 $Y2=0.725
r248 29 80 3.04077 $w=2.8e-07 $l=2.08e-07 $layer=LI1_cond $X=1.245 $Y=2.285
+ $X2=1.245 $Y2=2.077
r249 29 31 6.99698 $w=2.78e-07 $l=1.7e-07 $layer=LI1_cond $X=1.245 $Y=2.285
+ $X2=1.245 $Y2=2.455
r250 28 58 43.0552 $w=3.3e-07 $l=1.65e-07 $layer=POLY_cond $X=4 $Y=1.145 $X2=4
+ $Y2=1.31
r251 23 66 21.2229 $w=1.5e-07 $l=1.65e-07 $layer=POLY_cond $X=6.825 $Y=2.195
+ $X2=6.825 $Y2=2.03
r252 23 25 233.309 $w=1.5e-07 $l=4.55e-07 $layer=POLY_cond $X=6.825 $Y=2.195
+ $X2=6.825 $Y2=2.65
r253 22 64 21.2229 $w=1.5e-07 $l=1.65e-07 $layer=POLY_cond $X=6.78 $Y=1.865
+ $X2=6.78 $Y2=2.03
r254 21 22 284.585 $w=1.5e-07 $l=5.55e-07 $layer=POLY_cond $X=6.78 $Y=1.31
+ $X2=6.78 $Y2=1.865
r255 19 21 26.9307 $w=1.5e-07 $l=1.06066e-07 $layer=POLY_cond $X=6.705 $Y=1.235
+ $X2=6.78 $Y2=1.31
r256 19 20 164.085 $w=1.5e-07 $l=3.2e-07 $layer=POLY_cond $X=6.705 $Y=1.235
+ $X2=6.385 $Y2=1.235
r257 15 20 26.9307 $w=1.5e-07 $l=1.06066e-07 $layer=POLY_cond $X=6.31 $Y=1.16
+ $X2=6.385 $Y2=1.235
r258 15 17 274.33 $w=1.5e-07 $l=5.35e-07 $layer=POLY_cond $X=6.31 $Y=1.16
+ $X2=6.31 $Y2=0.625
r259 13 28 174.34 $w=1.5e-07 $l=3.4e-07 $layer=POLY_cond $X=4.07 $Y=0.805
+ $X2=4.07 $Y2=1.145
r260 9 63 271.766 $w=1.5e-07 $l=5.3e-07 $layer=POLY_cond $X=2.9 $Y=2.885 $X2=2.9
+ $Y2=2.355
r261 2 31 300 $w=1.7e-07 $l=2.03286e-07 $layer=licon1_PDIFF $count=2 $X=1.08
+ $Y=2.31 $X2=1.22 $Y2=2.455
r262 1 35 182 $w=1.7e-07 $l=3.45868e-07 $layer=licon1_NDIFF $count=1 $X=1.39
+ $Y=0.45 $X2=1.55 $Y2=0.725
.ends

.subckt PM_SKY130_FD_SC_LP__DFRTP_4%A_731_405# 1 2 9 11 12 15 18 21 22 23 26 28
+ 30 31 38 40 44
c110 30 0 9.31515e-20 $X=4.54 $Y=1.31
c111 26 0 1.80912e-19 $X=5.87 $Y=1.485
c112 9 0 2.98772e-19 $X=3.73 $Y=2.885
r113 41 44 5.09734 $w=2.58e-07 $l=1.15e-07 $layer=LI1_cond $X=5.87 $Y=2.335
+ $X2=5.985 $Y2=2.335
r114 35 38 6.1 $w=1.98e-07 $l=1.1e-07 $layer=LI1_cond $X=5.87 $Y=0.965 $X2=5.98
+ $Y2=0.965
r115 30 33 9.07985 $w=3.28e-07 $l=2.6e-07 $layer=LI1_cond $X=4.54 $Y=1.31
+ $X2=4.54 $Y2=1.57
r116 30 31 72.64 $w=1.7e-07 $l=3.4e-07 $layer=licon1_POLY $count=2 $X=4.54
+ $Y=1.31 $X2=4.54 $Y2=1.31
r117 28 41 3.22376 $w=1.7e-07 $l=1.3e-07 $layer=LI1_cond $X=5.87 $Y=2.205
+ $X2=5.87 $Y2=2.335
r118 27 40 5.16603 $w=1.7e-07 $l=8.5e-08 $layer=LI1_cond $X=5.87 $Y=1.655
+ $X2=5.87 $Y2=1.57
r119 27 28 35.8824 $w=1.68e-07 $l=5.5e-07 $layer=LI1_cond $X=5.87 $Y=1.655
+ $X2=5.87 $Y2=2.205
r120 26 40 5.16603 $w=1.7e-07 $l=8.5e-08 $layer=LI1_cond $X=5.87 $Y=1.485
+ $X2=5.87 $Y2=1.57
r121 25 35 1.68994 $w=1.7e-07 $l=1e-07 $layer=LI1_cond $X=5.87 $Y=1.065 $X2=5.87
+ $Y2=0.965
r122 25 26 27.4011 $w=1.68e-07 $l=4.2e-07 $layer=LI1_cond $X=5.87 $Y=1.065
+ $X2=5.87 $Y2=1.485
r123 24 33 4.62375 $w=1.7e-07 $l=1.65e-07 $layer=LI1_cond $X=4.705 $Y=1.57
+ $X2=4.54 $Y2=1.57
r124 23 40 1.34256 $w=1.7e-07 $l=8.5e-08 $layer=LI1_cond $X=5.785 $Y=1.57
+ $X2=5.87 $Y2=1.57
r125 23 24 70.4599 $w=1.68e-07 $l=1.08e-06 $layer=LI1_cond $X=5.785 $Y=1.57
+ $X2=4.705 $Y2=1.57
r126 21 31 59.4528 $w=3.3e-07 $l=3.4e-07 $layer=POLY_cond $X=4.54 $Y=1.65
+ $X2=4.54 $Y2=1.31
r127 21 22 46.2115 $w=3.3e-07 $l=1.65e-07 $layer=POLY_cond $X=4.54 $Y=1.65
+ $X2=4.54 $Y2=1.815
r128 20 31 46.2115 $w=3.3e-07 $l=1.65e-07 $layer=POLY_cond $X=4.54 $Y=1.145
+ $X2=4.54 $Y2=1.31
r129 18 22 107.681 $w=1.5e-07 $l=2.1e-07 $layer=POLY_cond $X=4.45 $Y=2.025
+ $X2=4.45 $Y2=1.815
r130 15 20 174.34 $w=1.5e-07 $l=3.4e-07 $layer=POLY_cond $X=4.45 $Y=0.805
+ $X2=4.45 $Y2=1.145
r131 11 18 26.9307 $w=1.5e-07 $l=1.06066e-07 $layer=POLY_cond $X=4.375 $Y=2.1
+ $X2=4.45 $Y2=2.025
r132 11 12 292.277 $w=1.5e-07 $l=5.7e-07 $layer=POLY_cond $X=4.375 $Y=2.1
+ $X2=3.805 $Y2=2.1
r133 7 12 26.9307 $w=1.5e-07 $l=1.06066e-07 $layer=POLY_cond $X=3.73 $Y=2.175
+ $X2=3.805 $Y2=2.1
r134 7 9 364.064 $w=1.5e-07 $l=7.1e-07 $layer=POLY_cond $X=3.73 $Y=2.175
+ $X2=3.73 $Y2=2.885
r135 2 44 600 $w=1.7e-07 $l=1.92614e-07 $layer=licon1_PDIFF $count=1 $X=5.845
+ $Y=2.245 $X2=5.985 $Y2=2.37
r136 1 38 182 $w=1.7e-07 $l=7.72043e-07 $layer=licon1_NDIFF $count=1 $X=5.725
+ $Y=0.305 $X2=5.98 $Y2=0.96
.ends

.subckt PM_SKY130_FD_SC_LP__DFRTP_4%RESET_B 3 5 6 9 11 15 17 18 22 25 29 31 34
+ 35 36 38 41 42 43 45 46 48 52 53 58 64 66
c209 29 0 4.01027e-20 $X=8.41 $Y=0.875
c210 18 0 1.25615e-19 $X=4.31 $Y=2.46
c211 17 0 9.31515e-20 $X=4.735 $Y=2.46
c212 11 0 1.76895e-19 $X=4.915 $Y=0.18
c213 9 0 1.61677e-19 $X=2.58 $Y=0.805
r214 64 66 1.26488 $w=4.08e-07 $l=4.5e-08 $layer=LI1_cond $X=8.36 $Y=1.62
+ $X2=8.36 $Y2=1.665
r215 52 64 2.47908 $w=4.1e-07 $l=8.5e-08 $layer=LI1_cond $X=8.36 $Y=1.535
+ $X2=8.36 $Y2=1.62
r216 52 53 9.83793 $w=4.08e-07 $l=3.5e-07 $layer=LI1_cond $X=8.36 $Y=1.685
+ $X2=8.36 $Y2=2.035
r217 52 66 0.562167 $w=4.08e-07 $l=2e-08 $layer=LI1_cond $X=8.36 $Y=1.685
+ $X2=8.36 $Y2=1.665
r218 52 58 72.64 $w=1.7e-07 $l=3.4e-07 $layer=licon1_POLY $count=2 $X=8.32
+ $Y=1.615 $X2=8.32 $Y2=1.615
r219 48 50 9.7861 $w=1.68e-07 $l=1.5e-07 $layer=LI1_cond $X=5.87 $Y=2.72
+ $X2=5.87 $Y2=2.87
r220 46 62 19.2347 $w=3.3e-07 $l=1.1e-07 $layer=POLY_cond $X=4.9 $Y=2.35 $X2=4.9
+ $Y2=2.46
r221 46 61 46.2115 $w=3.3e-07 $l=1.65e-07 $layer=POLY_cond $X=4.9 $Y=2.35
+ $X2=4.9 $Y2=2.185
r222 45 47 18.2753 $w=2.47e-07 $l=3.7e-07 $layer=LI1_cond $X=4.9 $Y=2.35 $X2=4.9
+ $Y2=2.72
r223 45 46 145.28 $w=1.7e-07 $l=1.7e-07 $layer=licon1_POLY $count=1 $X=4.9
+ $Y=2.35 $X2=4.9 $Y2=2.35
r224 42 52 5.97895 $w=1.7e-07 $l=2.05e-07 $layer=LI1_cond $X=8.155 $Y=1.535
+ $X2=8.36 $Y2=1.535
r225 42 43 41.754 $w=1.68e-07 $l=6.4e-07 $layer=LI1_cond $X=8.155 $Y=1.535
+ $X2=7.515 $Y2=1.535
r226 40 43 6.81649 $w=1.7e-07 $l=1.20208e-07 $layer=LI1_cond $X=7.43 $Y=1.62
+ $X2=7.515 $Y2=1.535
r227 40 41 76.0053 $w=1.68e-07 $l=1.165e-06 $layer=LI1_cond $X=7.43 $Y=1.62
+ $X2=7.43 $Y2=2.785
r228 39 50 0.716491 $w=1.7e-07 $l=8.5e-08 $layer=LI1_cond $X=5.955 $Y=2.87
+ $X2=5.87 $Y2=2.87
r229 38 41 6.81649 $w=1.7e-07 $l=1.20208e-07 $layer=LI1_cond $X=7.345 $Y=2.87
+ $X2=7.43 $Y2=2.785
r230 38 39 90.6845 $w=1.68e-07 $l=1.39e-06 $layer=LI1_cond $X=7.345 $Y=2.87
+ $X2=5.955 $Y2=2.87
r231 37 47 2.92482 $w=1.7e-07 $l=1.65e-07 $layer=LI1_cond $X=5.065 $Y=2.72
+ $X2=4.9 $Y2=2.72
r232 36 48 0.716491 $w=1.7e-07 $l=8.5e-08 $layer=LI1_cond $X=5.785 $Y=2.72
+ $X2=5.87 $Y2=2.72
r233 36 37 46.9733 $w=1.68e-07 $l=7.2e-07 $layer=LI1_cond $X=5.785 $Y=2.72
+ $X2=5.065 $Y2=2.72
r234 34 58 59.4528 $w=3.3e-07 $l=3.4e-07 $layer=POLY_cond $X=8.32 $Y=1.955
+ $X2=8.32 $Y2=1.615
r235 34 35 37.7798 $w=3.3e-07 $l=1.65e-07 $layer=POLY_cond $X=8.32 $Y=1.955
+ $X2=8.32 $Y2=2.12
r236 33 58 46.2115 $w=3.3e-07 $l=1.65e-07 $layer=POLY_cond $X=8.32 $Y=1.45
+ $X2=8.32 $Y2=1.615
r237 29 33 294.84 $w=1.5e-07 $l=5.75e-07 $layer=POLY_cond $X=8.41 $Y=0.875
+ $X2=8.41 $Y2=1.45
r238 25 35 271.766 $w=1.5e-07 $l=5.3e-07 $layer=POLY_cond $X=8.315 $Y=2.65
+ $X2=8.315 $Y2=2.12
r239 22 61 743.511 $w=1.5e-07 $l=1.45e-06 $layer=POLY_cond $X=4.99 $Y=0.735
+ $X2=4.99 $Y2=2.185
r240 19 22 246.128 $w=1.5e-07 $l=4.8e-07 $layer=POLY_cond $X=4.99 $Y=0.255
+ $X2=4.99 $Y2=0.735
r241 17 62 21.2229 $w=1.5e-07 $l=1.65e-07 $layer=POLY_cond $X=4.735 $Y=2.46
+ $X2=4.9 $Y2=2.46
r242 17 18 217.926 $w=1.5e-07 $l=4.25e-07 $layer=POLY_cond $X=4.735 $Y=2.46
+ $X2=4.31 $Y2=2.46
r243 13 18 26.9307 $w=1.5e-07 $l=1.06066e-07 $layer=POLY_cond $X=4.235 $Y=2.535
+ $X2=4.31 $Y2=2.46
r244 13 15 179.468 $w=1.5e-07 $l=3.5e-07 $layer=POLY_cond $X=4.235 $Y=2.535
+ $X2=4.235 $Y2=2.885
r245 12 31 20.4101 $w=1.5e-07 $l=7.5e-08 $layer=POLY_cond $X=2.655 $Y=0.18
+ $X2=2.58 $Y2=0.18
r246 11 19 26.9307 $w=1.5e-07 $l=1.06066e-07 $layer=POLY_cond $X=4.915 $Y=0.18
+ $X2=4.99 $Y2=0.255
r247 11 12 1158.85 $w=1.5e-07 $l=2.26e-06 $layer=POLY_cond $X=4.915 $Y=0.18
+ $X2=2.655 $Y2=0.18
r248 7 31 5.30422 $w=1.5e-07 $l=7.5e-08 $layer=POLY_cond $X=2.58 $Y=0.255
+ $X2=2.58 $Y2=0.18
r249 7 9 282.021 $w=1.5e-07 $l=5.5e-07 $layer=POLY_cond $X=2.58 $Y=0.255
+ $X2=2.58 $Y2=0.805
r250 5 31 20.4101 $w=1.5e-07 $l=7.5e-08 $layer=POLY_cond $X=2.505 $Y=0.18
+ $X2=2.58 $Y2=0.18
r251 5 6 199.979 $w=1.5e-07 $l=3.9e-07 $layer=POLY_cond $X=2.505 $Y=0.18
+ $X2=2.115 $Y2=0.18
r252 1 6 26.9307 $w=1.5e-07 $l=1.06066e-07 $layer=POLY_cond $X=2.04 $Y=0.255
+ $X2=2.115 $Y2=0.18
r253 1 3 1348.57 $w=1.5e-07 $l=2.63e-06 $layer=POLY_cond $X=2.04 $Y=0.255
+ $X2=2.04 $Y2=2.885
.ends

.subckt PM_SKY130_FD_SC_LP__DFRTP_4%A_595_535# 1 2 3 11 12 14 17 19 24 25 26 27
+ 29 31 34 35 36 38 43 50 51 58
c147 51 0 1.80239e-20 $X=5.44 $Y=1.92
c148 43 0 6.79976e-20 $X=5.44 $Y=0.96
c149 38 0 1.26057e-19 $X=3.855 $Y=0.88
c150 27 0 1.76895e-19 $X=5.275 $Y=0.96
r151 51 60 17.0787 $w=2.54e-07 $l=9e-08 $layer=POLY_cond $X=5.44 $Y=1.92
+ $X2=5.35 $Y2=1.92
r152 50 53 2.7938 $w=3.28e-07 $l=8e-08 $layer=LI1_cond $X=5.44 $Y=1.92 $X2=5.44
+ $Y2=2
r153 50 51 145.28 $w=1.7e-07 $l=1.7e-07 $layer=licon1_POLY $count=1 $X=5.44
+ $Y=1.92 $X2=5.44 $Y2=1.92
r154 47 58 36.7209 $w=3.3e-07 $l=2.1e-07 $layer=POLY_cond $X=5.44 $Y=1.22
+ $X2=5.65 $Y2=1.22
r155 47 55 15.7375 $w=3.3e-07 $l=9e-08 $layer=POLY_cond $X=5.44 $Y=1.22 $X2=5.35
+ $Y2=1.22
r156 46 47 145.28 $w=1.7e-07 $l=1.7e-07 $layer=licon1_POLY $count=1 $X=5.44
+ $Y=1.22 $X2=5.44 $Y2=1.22
r157 43 46 9.07985 $w=3.28e-07 $l=2.6e-07 $layer=LI1_cond $X=5.44 $Y=0.96
+ $X2=5.44 $Y2=1.22
r158 38 40 4.43636 $w=1.98e-07 $l=8e-08 $layer=LI1_cond $X=3.86 $Y=0.88 $X2=3.86
+ $Y2=0.96
r159 35 53 4.62375 $w=1.7e-07 $l=1.65e-07 $layer=LI1_cond $X=5.275 $Y=2 $X2=5.44
+ $Y2=2
r160 35 36 47.6257 $w=1.68e-07 $l=7.3e-07 $layer=LI1_cond $X=5.275 $Y=2
+ $X2=4.545 $Y2=2
r161 34 42 5.3796 $w=2.42e-07 $l=8.89101e-08 $layer=LI1_cond $X=4.46 $Y=2.455
+ $X2=4.452 $Y2=2.54
r162 33 36 6.81649 $w=1.7e-07 $l=1.20208e-07 $layer=LI1_cond $X=4.46 $Y=2.085
+ $X2=4.545 $Y2=2
r163 33 34 24.139 $w=1.68e-07 $l=3.7e-07 $layer=LI1_cond $X=4.46 $Y=2.085
+ $X2=4.46 $Y2=2.455
r164 29 42 10.1053 $w=2.65e-07 $l=2.17e-07 $layer=LI1_cond $X=4.452 $Y=2.757
+ $X2=4.452 $Y2=2.54
r165 29 31 5.56652 $w=2.63e-07 $l=1.28e-07 $layer=LI1_cond $X=4.452 $Y=2.757
+ $X2=4.452 $Y2=2.885
r166 28 40 1.68994 $w=1.7e-07 $l=1e-07 $layer=LI1_cond $X=3.96 $Y=0.96 $X2=3.86
+ $Y2=0.96
r167 27 43 4.62375 $w=1.7e-07 $l=1.65e-07 $layer=LI1_cond $X=5.275 $Y=0.96
+ $X2=5.44 $Y2=0.96
r168 27 28 85.7914 $w=1.68e-07 $l=1.315e-06 $layer=LI1_cond $X=5.275 $Y=0.96
+ $X2=3.96 $Y2=0.96
r169 25 42 2.80567 $w=1.7e-07 $l=1.32e-07 $layer=LI1_cond $X=4.32 $Y=2.54
+ $X2=4.452 $Y2=2.54
r170 25 26 36.2086 $w=1.68e-07 $l=5.55e-07 $layer=LI1_cond $X=4.32 $Y=2.54
+ $X2=3.765 $Y2=2.54
r171 23 26 6.81649 $w=1.7e-07 $l=1.20208e-07 $layer=LI1_cond $X=3.68 $Y=2.625
+ $X2=3.765 $Y2=2.54
r172 23 24 11.0909 $w=1.68e-07 $l=1.7e-07 $layer=LI1_cond $X=3.68 $Y=2.625
+ $X2=3.68 $Y2=2.795
r173 19 24 7.36005 $w=2.8e-07 $l=1.77482e-07 $layer=LI1_cond $X=3.595 $Y=2.935
+ $X2=3.68 $Y2=2.795
r174 19 21 18.1098 $w=2.78e-07 $l=4.4e-07 $layer=LI1_cond $X=3.595 $Y=2.935
+ $X2=3.155 $Y2=2.935
r175 15 51 62.622 $w=2.54e-07 $l=4.04166e-07 $layer=POLY_cond $X=5.77 $Y=2.085
+ $X2=5.44 $Y2=1.92
r176 15 17 297.404 $w=1.5e-07 $l=5.8e-07 $layer=POLY_cond $X=5.77 $Y=2.085
+ $X2=5.77 $Y2=2.665
r177 12 58 21.2229 $w=1.5e-07 $l=1.65e-07 $layer=POLY_cond $X=5.65 $Y=1.055
+ $X2=5.65 $Y2=1.22
r178 12 14 138.173 $w=1.5e-07 $l=4.3e-07 $layer=POLY_cond $X=5.65 $Y=1.055
+ $X2=5.65 $Y2=0.625
r179 11 60 15.087 $w=1.5e-07 $l=1.65e-07 $layer=POLY_cond $X=5.35 $Y=1.755
+ $X2=5.35 $Y2=1.92
r180 10 55 21.2229 $w=1.5e-07 $l=1.65e-07 $layer=POLY_cond $X=5.35 $Y=1.385
+ $X2=5.35 $Y2=1.22
r181 10 11 189.723 $w=1.5e-07 $l=3.7e-07 $layer=POLY_cond $X=5.35 $Y=1.385
+ $X2=5.35 $Y2=1.755
r182 3 31 600 $w=1.7e-07 $l=2.71109e-07 $layer=licon1_PDIFF $count=1 $X=4.31
+ $Y=2.675 $X2=4.45 $Y2=2.885
r183 2 21 600 $w=1.7e-07 $l=3.1229e-07 $layer=licon1_PDIFF $count=1 $X=2.975
+ $Y=2.675 $X2=3.155 $Y2=2.91
r184 1 38 182 $w=1.7e-07 $l=5.33807e-07 $layer=licon1_NDIFF $count=1 $X=3.445
+ $Y=0.595 $X2=3.855 $Y2=0.88
.ends

.subckt PM_SKY130_FD_SC_LP__DFRTP_4%A_1475_426# 1 2 9 13 17 20 21 24 26 28 33 34
+ 36
c88 36 0 7.51852e-20 $X=7.71 $Y=2.115
c89 33 0 4.01027e-20 $X=9.21 $Y=2.3
c90 13 0 1.3753e-19 $X=7.71 $Y=0.875
r91 32 33 89.3797 $w=1.68e-07 $l=1.37e-06 $layer=LI1_cond $X=9.21 $Y=0.93
+ $X2=9.21 $Y2=2.3
r92 28 32 7.36005 $w=2.8e-07 $l=1.77482e-07 $layer=LI1_cond $X=9.125 $Y=0.79
+ $X2=9.21 $Y2=0.93
r93 28 30 4.93904 $w=2.78e-07 $l=1.2e-07 $layer=LI1_cond $X=9.125 $Y=0.79
+ $X2=9.005 $Y2=0.79
r94 27 34 8.61065 $w=1.7e-07 $l=1.65e-07 $layer=LI1_cond $X=8.695 $Y=2.385
+ $X2=8.53 $Y2=2.385
r95 26 33 6.81649 $w=1.7e-07 $l=1.20208e-07 $layer=LI1_cond $X=9.125 $Y=2.385
+ $X2=9.21 $Y2=2.3
r96 26 27 28.0535 $w=1.68e-07 $l=4.3e-07 $layer=LI1_cond $X=9.125 $Y=2.385
+ $X2=8.695 $Y2=2.385
r97 22 34 0.89609 $w=3.3e-07 $l=8.5e-08 $layer=LI1_cond $X=8.53 $Y=2.47 $X2=8.53
+ $Y2=2.385
r98 22 24 6.28605 $w=3.28e-07 $l=1.8e-07 $layer=LI1_cond $X=8.53 $Y=2.47
+ $X2=8.53 $Y2=2.65
r99 20 34 8.61065 $w=1.7e-07 $l=1.65e-07 $layer=LI1_cond $X=8.365 $Y=2.385
+ $X2=8.53 $Y2=2.385
r100 20 21 27.4011 $w=1.68e-07 $l=4.2e-07 $layer=LI1_cond $X=8.365 $Y=2.385
+ $X2=7.945 $Y2=2.385
r101 18 36 11.9645 $w=2.82e-07 $l=7e-08 $layer=POLY_cond $X=7.78 $Y=2.115
+ $X2=7.71 $Y2=2.115
r102 17 18 145.28 $w=1.7e-07 $l=1.7e-07 $layer=licon1_POLY $count=1 $X=7.78
+ $Y=2.115 $X2=7.78 $Y2=2.115
r103 15 21 7.21222 $w=1.7e-07 $l=1.67183e-07 $layer=LI1_cond $X=7.815 $Y=2.3
+ $X2=7.945 $Y2=2.385
r104 15 17 8.20008 $w=2.58e-07 $l=1.85e-07 $layer=LI1_cond $X=7.815 $Y=2.3
+ $X2=7.815 $Y2=2.115
r105 11 36 17.5183 $w=1.5e-07 $l=1.65e-07 $layer=POLY_cond $X=7.71 $Y=1.95
+ $X2=7.71 $Y2=2.115
r106 11 13 551.223 $w=1.5e-07 $l=1.075e-06 $layer=POLY_cond $X=7.71 $Y=1.95
+ $X2=7.71 $Y2=0.875
r107 7 36 44.4397 $w=2.82e-07 $l=3.32415e-07 $layer=POLY_cond $X=7.45 $Y=2.28
+ $X2=7.71 $Y2=2.115
r108 7 9 189.723 $w=1.5e-07 $l=3.7e-07 $layer=POLY_cond $X=7.45 $Y=2.28 $X2=7.45
+ $Y2=2.65
r109 2 24 600 $w=1.7e-07 $l=2.71109e-07 $layer=licon1_PDIFF $count=1 $X=8.39
+ $Y=2.44 $X2=8.53 $Y2=2.65
r110 1 30 182 $w=1.7e-07 $l=2.22711e-07 $layer=licon1_NDIFF $count=1 $X=8.845
+ $Y=0.665 $X2=9.005 $Y2=0.815
.ends

.subckt PM_SKY130_FD_SC_LP__DFRTP_4%A_1255_449# 1 2 7 9 12 14 16 18 21 24 26 27
+ 31 32 36 37 40 41 45 48
c119 48 0 1.3753e-19 $X=6.82 $Y=0.96
r120 50 51 5.02519 $w=3.28e-07 $l=8.5e-08 $layer=LI1_cond $X=6.82 $Y=1.185
+ $X2=6.82 $Y2=1.27
r121 48 50 7.85757 $w=3.28e-07 $l=2.25e-07 $layer=LI1_cond $X=6.82 $Y=0.96
+ $X2=6.82 $Y2=1.185
r122 43 45 11.6128 $w=1.68e-07 $l=1.78e-07 $layer=LI1_cond $X=6.572 $Y=1.68
+ $X2=6.75 $Y2=1.68
r123 40 41 8.29065 $w=3.28e-07 $l=1.65e-07 $layer=LI1_cond $X=6.495 $Y=2.51
+ $X2=6.495 $Y2=2.345
r124 36 37 72.64 $w=1.7e-07 $l=3.4e-07 $layer=licon1_POLY $count=2 $X=8.86
+ $Y=1.36 $X2=8.86 $Y2=1.36
r125 34 36 4.71454 $w=2.18e-07 $l=9e-08 $layer=LI1_cond $X=8.845 $Y=1.27
+ $X2=8.845 $Y2=1.36
r126 33 50 4.62375 $w=1.7e-07 $l=1.65e-07 $layer=LI1_cond $X=6.985 $Y=1.185
+ $X2=6.82 $Y2=1.185
r127 32 34 6.96323 $w=1.7e-07 $l=1.46458e-07 $layer=LI1_cond $X=8.735 $Y=1.185
+ $X2=8.845 $Y2=1.27
r128 32 33 114.171 $w=1.68e-07 $l=1.75e-06 $layer=LI1_cond $X=8.735 $Y=1.185
+ $X2=6.985 $Y2=1.185
r129 31 45 0.0262452 $w=1.9e-07 $l=8.5e-08 $layer=LI1_cond $X=6.75 $Y=1.595
+ $X2=6.75 $Y2=1.68
r130 31 51 18.9713 $w=1.88e-07 $l=3.25e-07 $layer=LI1_cond $X=6.75 $Y=1.595
+ $X2=6.75 $Y2=1.27
r131 28 43 0.574824 $w=1.75e-07 $l=8.5e-08 $layer=LI1_cond $X=6.572 $Y=1.765
+ $X2=6.572 $Y2=1.68
r132 28 41 36.7584 $w=1.73e-07 $l=5.8e-07 $layer=LI1_cond $X=6.572 $Y=1.765
+ $X2=6.572 $Y2=2.345
r133 25 37 59.4528 $w=3.3e-07 $l=3.4e-07 $layer=POLY_cond $X=8.86 $Y=1.7
+ $X2=8.86 $Y2=1.36
r134 25 26 46.2115 $w=3.3e-07 $l=1.65e-07 $layer=POLY_cond $X=8.86 $Y=1.7
+ $X2=8.86 $Y2=1.865
r135 23 37 2.62292 $w=3.3e-07 $l=1.5e-08 $layer=POLY_cond $X=8.86 $Y=1.345
+ $X2=8.86 $Y2=1.36
r136 23 24 13.5877 $w=2.4e-07 $l=7.5e-08 $layer=POLY_cond $X=8.86 $Y=1.345
+ $X2=8.86 $Y2=1.27
r137 19 27 20.4101 $w=1.5e-07 $l=7.5e-08 $layer=POLY_cond $X=9.795 $Y=1.345
+ $X2=9.795 $Y2=1.27
r138 19 21 574.298 $w=1.5e-07 $l=1.12e-06 $layer=POLY_cond $X=9.795 $Y=1.345
+ $X2=9.795 $Y2=2.465
r139 16 27 20.4101 $w=1.5e-07 $l=7.5e-08 $layer=POLY_cond $X=9.795 $Y=1.195
+ $X2=9.795 $Y2=1.27
r140 16 18 173.52 $w=1.5e-07 $l=5.4e-07 $layer=POLY_cond $X=9.795 $Y=1.195
+ $X2=9.795 $Y2=0.655
r141 15 24 12.1617 $w=1.5e-07 $l=1.65e-07 $layer=POLY_cond $X=9.025 $Y=1.27
+ $X2=8.86 $Y2=1.27
r142 14 27 5.30422 $w=1.5e-07 $l=7.5e-08 $layer=POLY_cond $X=9.72 $Y=1.27
+ $X2=9.795 $Y2=1.27
r143 14 15 356.372 $w=1.5e-07 $l=6.95e-07 $layer=POLY_cond $X=9.72 $Y=1.27
+ $X2=9.025 $Y2=1.27
r144 12 26 402.521 $w=1.5e-07 $l=7.85e-07 $layer=POLY_cond $X=8.77 $Y=2.65
+ $X2=8.77 $Y2=1.865
r145 7 24 13.5877 $w=2.4e-07 $l=1.21861e-07 $layer=POLY_cond $X=8.77 $Y=1.195
+ $X2=8.86 $Y2=1.27
r146 7 9 102.827 $w=1.5e-07 $l=3.2e-07 $layer=POLY_cond $X=8.77 $Y=1.195
+ $X2=8.77 $Y2=0.875
r147 2 40 600 $w=1.7e-07 $l=3.58504e-07 $layer=licon1_PDIFF $count=1 $X=6.275
+ $Y=2.245 $X2=6.495 $Y2=2.51
r148 1 48 182 $w=1.7e-07 $l=8.44956e-07 $layer=licon1_NDIFF $count=1 $X=6.385
+ $Y=0.305 $X2=6.82 $Y2=0.96
.ends

.subckt PM_SKY130_FD_SC_LP__DFRTP_4%A_1891_47# 1 2 9 13 17 21 25 29 33 37 41 45
+ 54 57 64
r99 61 62 75.1904 $w=3.3e-07 $l=4.3e-07 $layer=POLY_cond $X=10.655 $Y=1.49
+ $X2=11.085 $Y2=1.49
r100 55 64 31.475 $w=3.3e-07 $l=1.8e-07 $layer=POLY_cond $X=11.335 $Y=1.49
+ $X2=11.515 $Y2=1.49
r101 55 62 43.7153 $w=3.3e-07 $l=2.5e-07 $layer=POLY_cond $X=11.335 $Y=1.49
+ $X2=11.085 $Y2=1.49
r102 54 55 72.64 $w=1.7e-07 $l=3.4e-07 $layer=licon1_POLY $count=2 $X=11.335
+ $Y=1.49 $X2=11.335 $Y2=1.49
r103 52 61 59.4528 $w=3.3e-07 $l=3.4e-07 $layer=POLY_cond $X=10.315 $Y=1.49
+ $X2=10.655 $Y2=1.49
r104 52 58 15.7375 $w=3.3e-07 $l=9e-08 $layer=POLY_cond $X=10.315 $Y=1.49
+ $X2=10.225 $Y2=1.49
r105 51 54 62.8485 $w=1.78e-07 $l=1.02e-06 $layer=LI1_cond $X=10.315 $Y=1.495
+ $X2=11.335 $Y2=1.495
r106 51 52 72.64 $w=1.7e-07 $l=3.4e-07 $layer=licon1_POLY $count=2 $X=10.315
+ $Y=1.49 $X2=10.315 $Y2=1.49
r107 49 57 2.47289 $w=1.8e-07 $l=1.23e-07 $layer=LI1_cond $X=9.71 $Y=1.495
+ $X2=9.587 $Y2=1.495
r108 49 51 37.2778 $w=1.78e-07 $l=6.05e-07 $layer=LI1_cond $X=9.71 $Y=1.495
+ $X2=10.315 $Y2=1.495
r109 45 47 43.7458 $w=2.43e-07 $l=9.3e-07 $layer=LI1_cond $X=9.587 $Y=1.98
+ $X2=9.587 $Y2=2.91
r110 43 57 3.96879 $w=2.45e-07 $l=9e-08 $layer=LI1_cond $X=9.587 $Y=1.585
+ $X2=9.587 $Y2=1.495
r111 43 45 18.5802 $w=2.43e-07 $l=3.95e-07 $layer=LI1_cond $X=9.587 $Y=1.585
+ $X2=9.587 $Y2=1.98
r112 39 57 3.96879 $w=2.45e-07 $l=9e-08 $layer=LI1_cond $X=9.587 $Y=1.405
+ $X2=9.587 $Y2=1.495
r113 39 41 46.3329 $w=2.43e-07 $l=9.85e-07 $layer=LI1_cond $X=9.587 $Y=1.405
+ $X2=9.587 $Y2=0.42
r114 35 64 21.2229 $w=1.5e-07 $l=1.65e-07 $layer=POLY_cond $X=11.515 $Y=1.655
+ $X2=11.515 $Y2=1.49
r115 35 37 415.34 $w=1.5e-07 $l=8.1e-07 $layer=POLY_cond $X=11.515 $Y=1.655
+ $X2=11.515 $Y2=2.465
r116 31 64 21.2229 $w=1.5e-07 $l=1.65e-07 $layer=POLY_cond $X=11.515 $Y=1.325
+ $X2=11.515 $Y2=1.49