* File: sky130_fd_sc_lp__srsdfstp_1.pex.spice
* Created: Wed Sep  2 10:39:22 2020
* Program "Calibre xRC"
* Version "v2018.4_34.26"
* Nominal Temperature: 27C
* Circuit Temperature: 27C
* 
.subckt PM_SKY130_FD_SC_LP__SRSDFSTP_1%SCD 3 7 11 12 13 14 18
r35 18 19 72.64 $w=1.7e-07 $l=3.4e-07 $layer=licon1_POLY $count=2 $X=0.39
+ $Y=1.37 $X2=0.39 $Y2=1.37
r36 14 19 5.89113 $w=6.68e-07 $l=3.3e-07 $layer=LI1_cond $X=0.72 $Y=1.54
+ $X2=0.39 $Y2=1.54
r37 13 19 2.67779 $w=6.68e-07 $l=1.5e-07 $layer=LI1_cond $X=0.24 $Y=1.54
+ $X2=0.39 $Y2=1.54
r38 11 18 59.4528 $w=3.3e-07 $l=3.4e-07 $layer=POLY_cond $X=0.39 $Y=1.71
+ $X2=0.39 $Y2=1.37
r39 11 12 46.2115 $w=3.3e-07 $l=1.65e-07 $layer=POLY_cond $X=0.39 $Y=1.71
+ $X2=0.39 $Y2=1.875
r40 10 18 46.2115 $w=3.3e-07 $l=1.65e-07 $layer=POLY_cond $X=0.39 $Y=1.205
+ $X2=0.39 $Y2=1.37
r41 7 12 435.851 $w=1.5e-07 $l=8.5e-07 $layer=POLY_cond $X=0.48 $Y=2.725
+ $X2=0.48 $Y2=1.875
r42 3 10 205.106 $w=1.5e-07 $l=4e-07 $layer=POLY_cond $X=0.48 $Y=0.805 $X2=0.48
+ $Y2=1.205
.ends

.subckt PM_SKY130_FD_SC_LP__SRSDFSTP_1%D 3 7 9 12 13
c39 7 0 9.92106e-20 $X=1.38 $Y=2.725
r40 12 15 46.2115 $w=3.3e-07 $l=1.65e-07 $layer=POLY_cond $X=1.29 $Y=1.71
+ $X2=1.29 $Y2=1.875
r41 12 14 46.2115 $w=3.3e-07 $l=1.65e-07 $layer=POLY_cond $X=1.29 $Y=1.71
+ $X2=1.29 $Y2=1.545
r42 12 13 145.28 $w=1.7e-07 $l=1.7e-07 $layer=licon1_POLY $count=1 $X=1.29
+ $Y=1.71 $X2=1.29 $Y2=1.71
r43 9 13 3.14303 $w=3.28e-07 $l=9e-08 $layer=LI1_cond $X=1.2 $Y=1.71 $X2=1.29
+ $Y2=1.71
r44 7 15 435.851 $w=1.5e-07 $l=8.5e-07 $layer=POLY_cond $X=1.38 $Y=2.725
+ $X2=1.38 $Y2=1.875
r45 3 14 379.447 $w=1.5e-07 $l=7.4e-07 $layer=POLY_cond $X=1.3 $Y=0.805 $X2=1.3
+ $Y2=1.545
.ends

.subckt PM_SKY130_FD_SC_LP__SRSDFSTP_1%A_339_93# 1 2 9 13 16 18 19 25
c50 19 0 1.99409e-19 $X=2.1 $Y=1.47
r51 22 25 6.36424 $w=3.33e-07 $l=1.85e-07 $layer=LI1_cond $X=2.47 $Y=0.842
+ $X2=2.655 $Y2=0.842
r52 19 29 80.5075 $w=5.7e-07 $l=5.05e-07 $layer=POLY_cond $X=1.98 $Y=1.47
+ $X2=1.98 $Y2=1.975
r53 19 28 48.5934 $w=5.7e-07 $l=1.65e-07 $layer=POLY_cond $X=1.98 $Y=1.47
+ $X2=1.98 $Y2=1.305
r54 18 21 8.34643 $w=6.87e-07 $l=4.7e-07 $layer=LI1_cond $X=2.33 $Y=1.47
+ $X2=2.33 $Y2=1.94
r55 18 19 72.64 $w=1.7e-07 $l=3.4e-07 $layer=licon1_POLY $count=2 $X=2.1 $Y=1.47
+ $X2=2.1 $Y2=1.47
r56 16 18 10.936 $w=6.87e-07 $l=2.24332e-07 $layer=LI1_cond $X=2.47 $Y=1.305
+ $X2=2.33 $Y2=1.47
r57 15 22 4.71304 $w=1.7e-07 $l=1.68e-07 $layer=LI1_cond $X=2.47 $Y=1.01
+ $X2=2.47 $Y2=0.842
r58 15 16 19.246 $w=1.68e-07 $l=2.95e-07 $layer=LI1_cond $X=2.47 $Y=1.01
+ $X2=2.47 $Y2=1.305
r59 13 29 384.574 $w=1.5e-07 $l=7.5e-07 $layer=POLY_cond $X=1.81 $Y=2.725
+ $X2=1.81 $Y2=1.975
r60 9 28 256.383 $w=1.5e-07 $l=5e-07 $layer=POLY_cond $X=1.77 $Y=0.805 $X2=1.77
+ $Y2=1.305
r61 2 21 600 $w=1.7e-07 $l=1.99687e-07 $layer=licon1_PDIFF $count=1 $X=2.425
+ $Y=1.795 $X2=2.555 $Y2=1.94
r62 1 25 182 $w=1.7e-07 $l=2.05061e-07 $layer=licon1_NDIFF $count=1 $X=2.51
+ $Y=0.695 $X2=2.655 $Y2=0.84
.ends

.subckt PM_SKY130_FD_SC_LP__SRSDFSTP_1%SCE 2 6 9 11 12 15 20 22 25 27 30
c84 27 0 1.99409e-19 $X=3.12 $Y=1.295
c85 25 0 6.37051e-20 $X=0.99 $Y=2.16
c86 6 0 2.10137e-20 $X=0.87 $Y=0.805
r87 30 33 46.5827 $w=3.6e-07 $l=1.65e-07 $layer=POLY_cond $X=2.875 $Y=1.39
+ $X2=2.875 $Y2=1.555
r88 30 32 46.5827 $w=3.6e-07 $l=1.65e-07 $layer=POLY_cond $X=2.875 $Y=1.39
+ $X2=2.875 $Y2=1.225
r89 30 31 145.28 $w=1.7e-07 $l=1.7e-07 $layer=licon1_POLY $count=1 $X=2.89
+ $Y=1.39 $X2=2.89 $Y2=1.39
r90 27 31 7.06832 $w=3.73e-07 $l=2.3e-07 $layer=LI1_cond $X=3.12 $Y=1.367
+ $X2=2.89 $Y2=1.367
r91 23 25 76.9149 $w=1.5e-07 $l=1.5e-07 $layer=POLY_cond $X=0.84 $Y=2.16
+ $X2=0.99 $Y2=2.16
r92 21 22 58.3064 $w=1.8e-07 $l=1.5e-07 $layer=POLY_cond $X=0.855 $Y=1.125
+ $X2=0.855 $Y2=1.275
r93 20 32 164.085 $w=1.5e-07 $l=3.2e-07 $layer=POLY_cond $X=2.87 $Y=0.905
+ $X2=2.87 $Y2=1.225
r94 17 20 333.298 $w=1.5e-07 $l=6.5e-07 $layer=POLY_cond $X=2.87 $Y=0.255
+ $X2=2.87 $Y2=0.905
r95 15 33 287.149 $w=1.5e-07 $l=5.6e-07 $layer=POLY_cond $X=2.77 $Y=2.115
+ $X2=2.77 $Y2=1.555
r96 11 17 26.9307 $w=1.5e-07 $l=1.06066e-07 $layer=POLY_cond $X=2.795 $Y=0.18
+ $X2=2.87 $Y2=0.255
r97 11 12 948.617 $w=1.5e-07 $l=1.85e-06 $layer=POLY_cond $X=2.795 $Y=0.18
+ $X2=0.945 $Y2=0.18
r98 7 25 2.83073 $w=1.5e-07 $l=7.5e-08 $layer=POLY_cond $X=0.99 $Y=2.235
+ $X2=0.99 $Y2=2.16
r99 7 9 251.255 $w=1.5e-07 $l=4.9e-07 $layer=POLY_cond $X=0.99 $Y=2.235 $X2=0.99
+ $Y2=2.725
r100 6 21 164.085 $w=1.5e-07 $l=3.2e-07 $layer=POLY_cond $X=0.87 $Y=0.805
+ $X2=0.87 $Y2=1.125
r101 3 12 26.9307 $w=1.5e-07 $l=1.06066e-07 $layer=POLY_cond $X=0.87 $Y=0.255
+ $X2=0.945 $Y2=0.18
r102 3 6 282.021 $w=1.5e-07 $l=5.5e-07 $layer=POLY_cond $X=0.87 $Y=0.255
+ $X2=0.87 $Y2=0.805
r103 2 23 2.83073 $w=1.5e-07 $l=7.5e-08 $layer=POLY_cond $X=0.84 $Y=2.085
+ $X2=0.84 $Y2=2.16
r104 2 22 415.34 $w=1.5e-07 $l=8.1e-07 $layer=POLY_cond $X=0.84 $Y=2.085
+ $X2=0.84 $Y2=1.275
.ends

.subckt PM_SKY130_FD_SC_LP__SRSDFSTP_1%A_689_139# 1 2 7 9 10 11 13 16 20 24 28
+ 34 37 40 42 43 46 47 48 52 53 54 56 59 60 61 63 70 75 77 78 80 81 83 84 85 87
+ 88 89 93 98 99 103
c329 99 0 1.61775e-19 $X=14.205 $Y=1.745
c330 98 0 1.90565e-19 $X=14.205 $Y=1.745
c331 70 0 1.1927e-19 $X=4.015 $Y=0.42
c332 20 0 1.29262e-19 $X=8.205 $Y=0.945
c333 11 0 2.36741e-19 $X=4.905 $Y=0.255
r334 107 109 62.9501 $w=3.3e-07 $l=3.6e-07 $layer=POLY_cond $X=8.205 $Y=1.575
+ $X2=8.565 $Y2=1.575
r335 99 114 32.3805 $w=3.3e-07 $l=1.65e-07 $layer=POLY_cond $X=14.205 $Y=1.745
+ $X2=14.205 $Y2=1.91
r336 98 100 16.5504 $w=2.58e-07 $l=3.5e-07 $layer=LI1_cond $X=14.205 $Y=1.745
+ $X2=14.205 $Y2=2.095
r337 98 99 145.28 $w=1.7e-07 $l=1.7e-07 $layer=licon1_POLY $count=1 $X=14.205
+ $Y=1.745 $X2=14.205 $Y2=1.745
r338 93 95 14.0267 $w=1.68e-07 $l=2.15e-07 $layer=LI1_cond $X=13.27 $Y=2.095
+ $X2=13.27 $Y2=2.31
r339 89 91 11.7433 $w=1.68e-07 $l=1.8e-07 $layer=LI1_cond $X=12.06 $Y=2.31
+ $X2=12.06 $Y2=2.49
r340 87 88 13.0959 $w=2.18e-07 $l=2.5e-07 $layer=LI1_cond $X=9.425 $Y=1.885
+ $X2=9.425 $Y2=2.135
r341 84 109 13.9889 $w=3.3e-07 $l=8e-08 $layer=POLY_cond $X=8.645 $Y=1.575
+ $X2=8.565 $Y2=1.575
r342 83 86 9.07524 $w=2.28e-07 $l=1.65e-07 $layer=LI1_cond $X=8.64 $Y=1.575
+ $X2=8.64 $Y2=1.74
r343 83 85 9.07524 $w=2.28e-07 $l=1.65e-07 $layer=LI1_cond $X=8.64 $Y=1.575
+ $X2=8.64 $Y2=1.41
r344 83 84 145.28 $w=1.7e-07 $l=1.7e-07 $layer=licon1_POLY $count=1 $X=8.645
+ $Y=1.575 $X2=8.645 $Y2=1.575
r345 80 81 7.99654 $w=2.43e-07 $l=1.7e-07 $layer=LI1_cond $X=5.95 $Y=1.592
+ $X2=6.12 $Y2=1.592
r346 77 78 72.64 $w=1.7e-07 $l=3.4e-07 $layer=licon1_POLY $count=2 $X=4.17
+ $Y=1.89 $X2=4.17 $Y2=1.89
r347 75 77 1.32706 $w=3.28e-07 $l=3.8e-08 $layer=LI1_cond $X=4.132 $Y=1.89
+ $X2=4.17 $Y2=1.89
r348 74 75 14.5627 $w=3.28e-07 $l=4.17e-07 $layer=LI1_cond $X=3.715 $Y=1.89
+ $X2=4.132 $Y2=1.89
r349 71 74 4.53993 $w=3.28e-07 $l=1.3e-07 $layer=LI1_cond $X=3.585 $Y=1.89
+ $X2=3.715 $Y2=1.89
r350 69 103 41.9667 $w=3.3e-07 $l=2.4e-07 $layer=POLY_cond $X=3.85 $Y=0.42
+ $X2=3.85 $Y2=0.18
r351 68 70 8.46218 $w=3.28e-07 $l=1.65e-07 $layer=LI1_cond $X=3.85 $Y=0.42
+ $X2=4.015 $Y2=0.42
r352 68 69 145.28 $w=1.7e-07 $l=1.7e-07 $layer=licon1_POLY $count=1 $X=3.85
+ $Y=0.42 $X2=3.85 $Y2=0.42
r353 65 68 9.25447 $w=3.28e-07 $l=2.65e-07 $layer=LI1_cond $X=3.585 $Y=0.42
+ $X2=3.85 $Y2=0.42
r354 64 93 0.716491 $w=1.7e-07 $l=8.5e-08 $layer=LI1_cond $X=13.355 $Y=2.095
+ $X2=13.27 $Y2=2.095
r355 63 100 3.17874 $w=1.7e-07 $l=1.65e-07 $layer=LI1_cond $X=14.04 $Y=2.095
+ $X2=14.205 $Y2=2.095
r356 63 64 44.6898 $w=1.68e-07 $l=6.85e-07 $layer=LI1_cond $X=14.04 $Y=2.095
+ $X2=13.355 $Y2=2.095
r357 62 89 0.716491 $w=1.7e-07 $l=8.5e-08 $layer=LI1_cond $X=12.145 $Y=2.31
+ $X2=12.06 $Y2=2.31
r358 61 95 0.716491 $w=1.7e-07 $l=8.5e-08 $layer=LI1_cond $X=13.185 $Y=2.31
+ $X2=13.27 $Y2=2.31
r359 61 62 67.8503 $w=1.68e-07 $l=1.04e-06 $layer=LI1_cond $X=13.185 $Y=2.31
+ $X2=12.145 $Y2=2.31
r360 59 91 0.716491 $w=1.7e-07 $l=8.5e-08 $layer=LI1_cond $X=11.975 $Y=2.49
+ $X2=12.06 $Y2=2.49
r361 59 60 162.449 $w=1.68e-07 $l=2.49e-06 $layer=LI1_cond $X=11.975 $Y=2.49
+ $X2=9.485 $Y2=2.49
r362 57 87 73.0695 $w=1.68e-07 $l=1.12e-06 $layer=LI1_cond $X=9.45 $Y=0.765
+ $X2=9.45 $Y2=1.885
r363 56 60 6.81649 $w=1.7e-07 $l=1.20208e-07 $layer=LI1_cond $X=9.4 $Y=2.405
+ $X2=9.485 $Y2=2.49
r364 56 88 17.615 $w=1.68e-07 $l=2.7e-07 $layer=LI1_cond $X=9.4 $Y=2.405 $X2=9.4
+ $Y2=2.135
r365 53 57 6.81649 $w=1.7e-07 $l=1.20208e-07 $layer=LI1_cond $X=9.365 $Y=0.68
+ $X2=9.45 $Y2=0.765
r366 53 54 43.7112 $w=1.68e-07 $l=6.7e-07 $layer=LI1_cond $X=9.365 $Y=0.68
+ $X2=8.695 $Y2=0.68
r367 52 86 76.0053 $w=1.68e-07 $l=1.165e-06 $layer=LI1_cond $X=8.61 $Y=2.905
+ $X2=8.61 $Y2=1.74
r368 49 54 6.81649 $w=1.7e-07 $l=1.20208e-07 $layer=LI1_cond $X=8.61 $Y=0.765
+ $X2=8.695 $Y2=0.68
r369 49 85 42.0802 $w=1.68e-07 $l=6.45e-07 $layer=LI1_cond $X=8.61 $Y=0.765
+ $X2=8.61 $Y2=1.41
r370 47 52 6.81649 $w=1.7e-07 $l=1.20208e-07 $layer=LI1_cond $X=8.525 $Y=2.99
+ $X2=8.61 $Y2=2.905
r371 47 48 33.2727 $w=1.68e-07 $l=5.1e-07 $layer=LI1_cond $X=8.525 $Y=2.99
+ $X2=8.015 $Y2=2.99
r372 46 48 6.81649 $w=1.7e-07 $l=1.20208e-07 $layer=LI1_cond $X=7.93 $Y=2.905
+ $X2=8.015 $Y2=2.99
r373 45 46 82.5294 $w=1.68e-07 $l=1.265e-06 $layer=LI1_cond $X=7.93 $Y=1.64
+ $X2=7.93 $Y2=2.905
r374 43 45 6.81649 $w=1.7e-07 $l=1.20208e-07 $layer=LI1_cond $X=7.845 $Y=1.555
+ $X2=7.93 $Y2=1.64
r375 43 81 112.54 $w=1.68e-07 $l=1.725e-06 $layer=LI1_cond $X=7.845 $Y=1.555
+ $X2=6.12 $Y2=1.555
r376 42 80 43.7112 $w=1.68e-07 $l=6.7e-07 $layer=LI1_cond $X=5.28 $Y=1.63
+ $X2=5.95 $Y2=1.63
r377 40 42 6.81649 $w=1.7e-07 $l=1.20208e-07 $layer=LI1_cond $X=5.195 $Y=1.545
+ $X2=5.28 $Y2=1.63
r378 39 40 73.0695 $w=1.68e-07 $l=1.12e-06 $layer=LI1_cond $X=5.195 $Y=0.425
+ $X2=5.195 $Y2=1.545
r379 37 39 6.81649 $w=1.7e-07 $l=1.20208e-07 $layer=LI1_cond $X=5.11 $Y=0.34
+ $X2=5.195 $Y2=0.425
r380 37 70 71.4385 $w=1.68e-07 $l=1.095e-06 $layer=LI1_cond $X=5.11 $Y=0.34
+ $X2=4.015 $Y2=0.34
r381 32 71 0.716491 $w=3.3e-07 $l=1.65e-07 $layer=LI1_cond $X=3.585 $Y=1.725
+ $X2=3.585 $Y2=1.89
r382 32 34 28.6365 $w=3.28e-07 $l=8.2e-07 $layer=LI1_cond $X=3.585 $Y=1.725
+ $X2=3.585 $Y2=0.905
r383 31 65 0.716491 $w=3.3e-07 $l=1.65e-07 $layer=LI1_cond $X=3.585 $Y=0.585
+ $X2=3.585 $Y2=0.42
r384 31 34 11.1752 $w=3.28e-07 $l=3.2e-07 $layer=LI1_cond $X=3.585 $Y=0.585
+ $X2=3.585 $Y2=0.905
r385 30 78 62.0758 $w=3.3e-07 $l=3.55e-07 $layer=POLY_cond $X=4.17 $Y=2.245
+ $X2=4.17 $Y2=1.89
r386 28 114 163.979 $w=2.5e-07 $l=6.6e-07 $layer=POLY_cond $X=14.185 $Y=2.57
+ $X2=14.185 $Y2=1.91
r387 22 109 21.2229 $w=1.5e-07 $l=1.65e-07 $layer=POLY_cond $X=8.565 $Y=1.41
+ $X2=8.565 $Y2=1.575
r388 22 24 238.436 $w=1.5e-07 $l=4.65e-07 $layer=POLY_cond $X=8.565 $Y=1.41
+ $X2=8.565 $Y2=0.945
r389 18 107 21.2229 $w=1.5e-07 $l=1.65e-07 $layer=POLY_cond $X=8.205 $Y=1.41
+ $X2=8.205 $Y2=1.575
r390 18 20 238.436 $w=1.5e-07 $l=4.65e-07 $layer=POLY_cond $X=8.205 $Y=1.41
+ $X2=8.205 $Y2=0.945
r391 14 16 251.255 $w=1.5e-07 $l=4.9e-07 $layer=POLY_cond $X=5.155 $Y=2.395
+ $X2=5.155 $Y2=2.885
r392 11 13 102.827 $w=1.5e-07 $l=3.2e-07 $layer=POLY_cond $X=4.905 $Y=0.255
+ $X2=4.905 $Y2=0.575
r393 10 30 32.1775 $w=1.5e-07 $l=1.98997e-07 $layer=POLY_cond $X=4.335 $Y=2.32
+ $X2=4.17 $Y2=2.245
r394 9 14 26.9307 $w=1.5e-07 $l=1.06066e-07 $layer=POLY_cond $X=5.08 $Y=2.32
+ $X2=5.155 $Y2=2.395
r395 9 10 382.011 $w=1.5e-07 $l=7.45e-07 $layer=POLY_cond $X=5.08 $Y=2.32
+ $X2=4.335 $Y2=2.32
r396 8 103 21.2229 $w=1.5e-07 $l=1.65e-07 $layer=POLY_cond $X=4.015 $Y=0.18
+ $X2=3.85 $Y2=0.18
r397 7 11 26.9307 $w=1.5e-07 $l=1.06066e-07 $layer=POLY_cond $X=4.83 $Y=0.18
+ $X2=4.905 $Y2=0.255
r398 7 8 417.904 $w=1.5e-07 $l=8.15e-07 $layer=POLY_cond $X=4.83 $Y=0.18
+ $X2=4.015 $Y2=0.18
r399 2 74 600 $w=1.7e-07 $l=2.03286e-07 $layer=licon1_PDIFF $count=1 $X=3.575
+ $Y=1.795 $X2=3.715 $Y2=1.94
r400 1 34 182 $w=1.7e-07 $l=2.71109e-07 $layer=licon1_NDIFF $count=1 $X=3.445
+ $Y=0.695 $X2=3.585 $Y2=0.905
.ends

.subckt PM_SKY130_FD_SC_LP__SRSDFSTP_1%A_659_113# 1 2 7 9 10 12 13 14 15 17 18
+ 22 24 26 27 28 29 31 32 36 38 43 44 45 48 49 51 52 54 55 56 58 59 60 62 63 64
+ 66 69 70 72 75 76 77 78 80 81 85 86 87 98
c352 85 0 9.34843e-20 $X=15.49 $Y=1.9
c353 81 0 1.58197e-19 $X=14.255 $Y=0.72
c354 75 0 3.92185e-19 $X=12.59 $Y=1.545
c355 59 0 1.29262e-19 $X=7.535 $Y=1.215
c356 49 0 8.63062e-21 $X=5.615 $Y=1.29
c357 48 0 1.82358e-19 $X=5.615 $Y=1.29
c358 24 0 1.37287e-19 $X=8.485 $Y=2.145
c359 15 0 1.1927e-19 $X=4.36 $Y=1.225
c360 10 0 4.32663e-20 $X=3.5 $Y=1.375
r361 102 103 44.4629 $w=3.3e-07 $l=1.55e-07 $layer=POLY_cond $X=5.615 $Y=1.3
+ $X2=5.615 $Y2=1.455
r362 95 98 5.07075 $w=2.48e-07 $l=1.1e-07 $layer=LI1_cond $X=15.49 $Y=2.025
+ $X2=15.6 $Y2=2.025
r363 87 89 19.8984 $w=1.68e-07 $l=3.05e-07 $layer=LI1_cond $X=13.27 $Y=0.68
+ $X2=13.27 $Y2=0.985
r364 85 95 2.99516 $w=1.7e-07 $l=1.25e-07 $layer=LI1_cond $X=15.49 $Y=1.9
+ $X2=15.49 $Y2=2.025
r365 84 85 68.8289 $w=1.68e-07 $l=1.055e-06 $layer=LI1_cond $X=15.49 $Y=0.845
+ $X2=15.49 $Y2=1.9
r366 81 93 17.2888 $w=1.68e-07 $l=2.65e-07 $layer=LI1_cond $X=14.17 $Y=0.72
+ $X2=14.17 $Y2=0.985
r367 81 83 28.5806 $w=2.48e-07 $l=6.2e-07 $layer=LI1_cond $X=14.255 $Y=0.72
+ $X2=14.875 $Y2=0.72
r368 80 84 7.14316 $w=2.5e-07 $l=1.62019e-07 $layer=LI1_cond $X=15.405 $Y=0.72
+ $X2=15.49 $Y2=0.845
r369 80 83 24.4318 $w=2.48e-07 $l=5.3e-07 $layer=LI1_cond $X=15.405 $Y=0.72
+ $X2=14.875 $Y2=0.72
r370 79 89 0.716491 $w=1.7e-07 $l=8.5e-08 $layer=LI1_cond $X=13.355 $Y=0.985
+ $X2=13.27 $Y2=0.985
r371 78 93 0.716491 $w=1.7e-07 $l=8.5e-08 $layer=LI1_cond $X=14.085 $Y=0.985
+ $X2=14.17 $Y2=0.985
r372 78 79 47.6257 $w=1.68e-07 $l=7.3e-07 $layer=LI1_cond $X=14.085 $Y=0.985
+ $X2=13.355 $Y2=0.985
r373 76 87 0.716491 $w=1.7e-07 $l=8.5e-08 $layer=LI1_cond $X=13.185 $Y=0.68
+ $X2=13.27 $Y2=0.68
r374 76 77 33.2727 $w=1.68e-07 $l=5.1e-07 $layer=LI1_cond $X=13.185 $Y=0.68
+ $X2=12.675 $Y2=0.68
r375 74 77 6.81649 $w=1.7e-07 $l=1.20208e-07 $layer=LI1_cond $X=12.59 $Y=0.765
+ $X2=12.675 $Y2=0.68
r376 74 75 50.8877 $w=1.68e-07 $l=7.8e-07 $layer=LI1_cond $X=12.59 $Y=0.765
+ $X2=12.59 $Y2=1.545
r377 73 86 2.11342 $w=1.7e-07 $l=1.65e-07 $layer=LI1_cond $X=10.415 $Y=1.63
+ $X2=10.25 $Y2=1.63
r378 72 75 6.81649 $w=1.7e-07 $l=1.20208e-07 $layer=LI1_cond $X=12.505 $Y=1.63
+ $X2=12.59 $Y2=1.545
r379 72 73 136.353 $w=1.68e-07 $l=2.09e-06 $layer=LI1_cond $X=12.505 $Y=1.63
+ $X2=10.415 $Y2=1.63
r380 70 106 15.7375 $w=3.3e-07 $l=9e-08 $layer=POLY_cond $X=10.25 $Y=1.98
+ $X2=10.25 $Y2=2.07
r381 69 70 145.28 $w=1.7e-07 $l=1.7e-07 $layer=licon1_POLY $count=1 $X=10.25
+ $Y=1.98 $X2=10.25 $Y2=1.98
r382 67 86 4.3182 $w=2.1e-07 $l=1.03078e-07 $layer=LI1_cond $X=10.29 $Y=1.715
+ $X2=10.25 $Y2=1.63
r383 67 69 12.2159 $w=2.48e-07 $l=2.65e-07 $layer=LI1_cond $X=10.29 $Y=1.715
+ $X2=10.29 $Y2=1.98
r384 66 86 4.3182 $w=2.1e-07 $l=1.18427e-07 $layer=LI1_cond $X=10.17 $Y=1.545
+ $X2=10.25 $Y2=1.63
r385 65 66 73.0695 $w=1.68e-07 $l=1.12e-06 $layer=LI1_cond $X=10.17 $Y=0.425
+ $X2=10.17 $Y2=1.545
r386 63 65 6.81649 $w=1.7e-07 $l=1.20208e-07 $layer=LI1_cond $X=10.085 $Y=0.34
+ $X2=10.17 $Y2=0.425
r387 63 64 155.273 $w=1.68e-07 $l=2.38e-06 $layer=LI1_cond $X=10.085 $Y=0.34
+ $X2=7.705 $Y2=0.34
r388 61 64 6.81649 $w=1.7e-07 $l=1.20208e-07 $layer=LI1_cond $X=7.62 $Y=0.425
+ $X2=7.705 $Y2=0.34
r389 61 62 45.9947 $w=1.68e-07 $l=7.05e-07 $layer=LI1_cond $X=7.62 $Y=0.425
+ $X2=7.62 $Y2=1.13
r390 59 62 6.81649 $w=1.7e-07 $l=1.20208e-07 $layer=LI1_cond $X=7.535 $Y=1.215
+ $X2=7.62 $Y2=1.13
r391 59 60 41.754 $w=1.68e-07 $l=6.4e-07 $layer=LI1_cond $X=7.535 $Y=1.215
+ $X2=6.895 $Y2=1.215
r392 58 60 6.81649 $w=1.7e-07 $l=1.20208e-07 $layer=LI1_cond $X=6.81 $Y=1.13
+ $X2=6.895 $Y2=1.215
r393 57 58 45.9947 $w=1.68e-07 $l=7.05e-07 $layer=LI1_cond $X=6.81 $Y=0.425
+ $X2=6.81 $Y2=1.13
r394 55 57 6.81649 $w=1.7e-07 $l=1.20208e-07 $layer=LI1_cond $X=6.725 $Y=0.34
+ $X2=6.81 $Y2=0.425
r395 55 56 38.492 $w=1.68e-07 $l=5.9e-07 $layer=LI1_cond $X=6.725 $Y=0.34
+ $X2=6.135 $Y2=0.34
r396 53 56 6.81649 $w=1.7e-07 $l=1.20208e-07 $layer=LI1_cond $X=6.05 $Y=0.425
+ $X2=6.135 $Y2=0.34
r397 53 54 16.3102 $w=1.68e-07 $l=2.5e-07 $layer=LI1_cond $X=6.05 $Y=0.425
+ $X2=6.05 $Y2=0.675
r398 51 54 6.81649 $w=1.7e-07 $l=1.20208e-07 $layer=LI1_cond $X=5.965 $Y=0.76
+ $X2=6.05 $Y2=0.675
r399 51 52 12.0695 $w=1.68e-07 $l=1.85e-07 $layer=LI1_cond $X=5.965 $Y=0.76
+ $X2=5.78 $Y2=0.76
r400 49 102 1.74861 $w=3.3e-07 $l=1e-08 $layer=POLY_cond $X=5.615 $Y=1.29
+ $X2=5.615 $Y2=1.3
r401 48 49 145.28 $w=1.7e-07 $l=1.7e-07 $layer=licon1_POLY $count=1 $X=5.615
+ $Y=1.29 $X2=5.615 $Y2=1.29
r402 46 52 7.76618 $w=1.7e-07 $l=2.03101e-07 $layer=LI1_cond $X=5.615 $Y=0.845
+ $X2=5.78 $Y2=0.76
r403 46 48 15.5405 $w=3.28e-07 $l=4.45e-07 $layer=LI1_cond $X=5.615 $Y=0.845
+ $X2=5.615 $Y2=1.29
r404 40 42 66.6596 $w=1.5e-07 $l=1.3e-07 $layer=POLY_cond $X=3.37 $Y=1.3 $X2=3.5
+ $Y2=1.3
r405 39 45 20.4101 $w=1.5e-07 $l=7.5e-08 $layer=POLY_cond $X=9.65 $Y=2.07
+ $X2=9.575 $Y2=2.07
r406 38 106 21.2229 $w=1.5e-07 $l=1.65e-07 $layer=POLY_cond $X=10.085 $Y=2.07
+ $X2=10.25 $Y2=2.07
r407 38 39 223.053 $w=1.5e-07 $l=4.35e-07 $layer=POLY_cond $X=10.085 $Y=2.07
+ $X2=9.65 $Y2=2.07
r408 34 45 5.30422 $w=1.5e-07 $l=7.5e-08 $layer=POLY_cond $X=9.575 $Y=1.995
+ $X2=9.575 $Y2=2.07
r409 34 36 594.809 $w=1.5e-07 $l=1.16e-06 $layer=POLY_cond $X=9.575 $Y=1.995
+ $X2=9.575 $Y2=0.835
r410 33 44 20.4101 $w=1.5e-07 $l=7.5e-08 $layer=POLY_cond $X=8.92 $Y=2.07
+ $X2=8.845 $Y2=2.07
r411 32 45 20.4101 $w=1.5e-07 $l=7.5e-08 $layer=POLY_cond $X=9.5 $Y=2.07
+ $X2=9.575 $Y2=2.07
r412 32 33 297.404 $w=1.5e-07 $l=5.8e-07 $layer=POLY_cond $X=9.5 $Y=2.07
+ $X2=8.92 $Y2=2.07
r413 29 44 5.30422 $w=1.5e-07 $l=7.5e-08 $layer=POLY_cond $X=8.845 $Y=2.145
+ $X2=8.845 $Y2=2.07
r414 29 31 170.307 $w=1.5e-07 $l=5.3e-07 $layer=POLY_cond $X=8.845 $Y=2.145
+ $X2=8.845 $Y2=2.675
r415 27 44 20.4101 $w=1.5e-07 $l=7.5e-08 $layer=POLY_cond $X=8.77 $Y=2.07
+ $X2=8.845 $Y2=2.07
r416 27 28 107.681 $w=1.5e-07 $l=2.1e-07 $layer=POLY_cond $X=8.77 $Y=2.07
+ $X2=8.56 $Y2=2.07
r417 24 28 26.9307 $w=1.5e-07 $l=1.06066e-07 $layer=POLY_cond $X=8.485 $Y=2.145
+ $X2=8.56 $Y2=2.07
r418 24 26 170.307 $w=1.5e-07 $l=5.3e-07 $layer=POLY_cond $X=8.485 $Y=2.145
+ $X2=8.485 $Y2=2.675
r419 22 103 733.255 $w=1.5e-07 $l=1.43e-06 $layer=POLY_cond $X=5.585 $Y=2.885
+ $X2=5.585 $Y2=1.455
r420 19 43 20.4101 $w=1.5e-07 $l=7.5e-08 $layer=POLY_cond $X=4.435 $Y=1.3
+ $X2=4.36 $Y2=1.3
r421 18 102 21.2229 $w=1.5e-07 $l=1.65e-07 $layer=POLY_cond $X=5.45 $Y=1.3
+ $X2=5.615 $Y2=1.3
r422 18 19 520.457 $w=1.5e-07 $l=1.015e-06 $layer=POLY_cond $X=5.45 $Y=1.3
+ $X2=4.435 $Y2=1.3
r423 15 43 5.30422 $w=1.5e-07 $l=7.5e-08 $layer=POLY_cond $X=4.36 $Y=1.225
+ $X2=4.36 $Y2=1.3
r424 15 17 102.827 $w=1.5e-07 $l=3.2e-07 $layer=POLY_cond $X=4.36 $Y=1.225
+ $X2=4.36 $Y2=0.905
r425 14 42 38.4574 $w=1.5e-07 $l=7.5e-08 $layer=POLY_cond $X=3.575 $Y=1.3
+ $X2=3.5 $Y2=1.3
r426 13 43 20.4101 $w=1.5e-07 $l=7.5e-08 $layer=POLY_cond $X=4.285 $Y=1.3
+ $X2=4.36 $Y2=1.3
r427 13 14 364.064 $w=1.5e-07 $l=7.1e-07 $layer=POLY_cond $X=4.285 $Y=1.3
+ $X2=3.575 $Y2=1.3
r428 10 42 2.83073 $w=1.5e-07 $l=7.5e-08 $layer=POLY_cond $X=3.5 $Y=1.375
+ $X2=3.5 $Y2=1.3
r429 10 12 237.787 $w=1.5e-07 $l=7.4e-07 $layer=POLY_cond $X=3.5 $Y=1.375
+ $X2=3.5 $Y2=2.115
r430 7 40 2.83073 $w=1.5e-07 $l=7.5e-08 $layer=POLY_cond $X=3.37 $Y=1.225
+ $X2=3.37 $Y2=1.3
r431 7 9 102.827 $w=1.5e-07 $l=3.2e-07 $layer=POLY_cond $X=3.37 $Y=1.225
+ $X2=3.37 $Y2=0.905
r432 2 98 600 $w=1.7e-07 $l=2.03286e-07 $layer=licon1_PDIFF $count=1 $X=15.46
+ $Y=1.92 $X2=15.6 $Y2=2.065
r433 1 83 182 $w=1.7e-07 $l=3.85746e-07 $layer=licon1_NDIFF $count=1 $X=14.73
+ $Y=0.36 $X2=14.875 $Y2=0.68
.ends

.subckt PM_SKY130_FD_SC_LP__SRSDFSTP_1%A_1068_21# 1 2 7 9 10 11 14 16 18 23 27
+ 31 33 34 40
c95 40 0 1.82358e-19 $X=6.065 $Y=2.185
c96 34 0 1.6215e-19 $X=6.845 $Y=2.375
c97 33 0 1.26986e-19 $X=6.23 $Y=2.365
c98 23 0 1.88211e-20 $X=6.68 $Y=2.375
c99 18 0 1.63324e-19 $X=6.305 $Y=1.157
r100 34 37 3.66686 $w=3.28e-07 $l=1.05e-07 $layer=LI1_cond $X=6.845 $Y=2.375
+ $X2=6.845 $Y2=2.48
r101 31 41 46.2115 $w=3.3e-07 $l=1.65e-07 $layer=POLY_cond $X=6.065 $Y=2.35
+ $X2=6.065 $Y2=2.515
r102 31 40 46.2115 $w=3.3e-07 $l=1.65e-07 $layer=POLY_cond $X=6.065 $Y=2.35
+ $X2=6.065 $Y2=2.185
r103 30 33 8.02406 $w=2.38e-07 $l=1.65e-07 $layer=LI1_cond $X=6.065 $Y=2.365
+ $X2=6.23 $Y2=2.365
r104 30 31 145.28 $w=1.7e-07 $l=1.7e-07 $layer=licon1_POLY $count=1 $X=6.065
+ $Y=2.35 $X2=6.065 $Y2=2.35
r105 25 27 11.7549 $w=2.48e-07 $l=2.55e-07 $layer=LI1_cond $X=6.43 $Y=1.015
+ $X2=6.43 $Y2=0.76
r106 23 34 3.11056 $w=2.2e-07 $l=1.65e-07 $layer=LI1_cond $X=6.68 $Y=2.375
+ $X2=6.845 $Y2=2.375
r107 23 33 23.5727 $w=2.18e-07 $l=4.5e-07 $layer=LI1_cond $X=6.68 $Y=2.375
+ $X2=6.23 $Y2=2.375
r108 20 21 145.28 $w=1.7e-07 $l=1.7e-07 $layer=licon1_POLY $count=1 $X=6.155
+ $Y=1.18 $X2=6.155 $Y2=1.18
r109 18 25 6.85451 $w=2.85e-07 $l=1.94715e-07 $layer=LI1_cond $X=6.305 $Y=1.157
+ $X2=6.43 $Y2=1.015
r110 18 20 6.06549 $w=2.83e-07 $l=1.5e-07 $layer=LI1_cond $X=6.305 $Y=1.157
+ $X2=6.155 $Y2=1.157
r111 16 21 39.393 $w=2.52e-07 $l=1.65e-07 $layer=POLY_cond $X=6.155 $Y=1.345
+ $X2=6.155 $Y2=1.18
r112 16 40 430.723 $w=1.5e-07 $l=8.4e-07 $layer=POLY_cond $X=6.155 $Y=1.345
+ $X2=6.155 $Y2=2.185
r113 14 41 189.723 $w=1.5e-07 $l=3.7e-07 $layer=POLY_cond $X=5.975 $Y=2.885
+ $X2=5.975 $Y2=2.515
r114 10 21 65.0317 $w=2.52e-07 $l=4.14367e-07 $layer=POLY_cond $X=5.99 $Y=0.84
+ $X2=6.155 $Y2=1.18
r115 10 11 256.383 $w=1.5e-07 $l=5e-07 $layer=POLY_cond $X=5.99 $Y=0.84 $X2=5.49
+ $Y2=0.84
r116 7 11 26.9307 $w=1.5e-07 $l=1.06066e-07 $layer=POLY_cond $X=5.415 $Y=0.765
+ $X2=5.49 $Y2=0.84
r117 7 9 102.827 $w=1.5e-07 $l=3.2e-07 $layer=POLY_cond $X=5.415 $Y=0.765
+ $X2=5.415 $Y2=0.445
r118 2 37 600 $w=1.7e-07 $l=3.38748e-07 $layer=licon1_PDIFF $count=1 $X=6.59
+ $Y=2.675 $X2=6.845 $Y2=2.48
r119 1 27 182 $w=1.7e-07 $l=3.39853e-07 $layer=licon1_NDIFF $count=1 $X=6.245
+ $Y=0.485 $X2=6.39 $Y2=0.76
.ends

.subckt PM_SKY130_FD_SC_LP__SRSDFSTP_1%A_887_139# 1 2 9 13 17 21 24 25 26 29 33
+ 36 38 39 44 46 47
c130 39 0 2.7285e-20 $X=7.51 $Y=1.93
c131 36 0 2.08416e-20 $X=6.605 $Y=1.93
c132 24 0 9.456e-20 $X=4.855 $Y=1.905
c133 21 0 1.6215e-19 $X=7.63 $Y=2.675
c134 9 0 1.26986e-19 $X=6.515 $Y=2.885
r135 42 44 7.28048 $w=4.58e-07 $l=2.8e-07 $layer=LI1_cond $X=4.575 $Y=0.905
+ $X2=4.855 $Y2=0.905
r136 39 52 46.5827 $w=3.6e-07 $l=1.65e-07 $layer=POLY_cond $X=7.525 $Y=1.93
+ $X2=7.525 $Y2=2.095
r137 39 51 72.229 $w=3.6e-07 $l=3.25e-07 $layer=POLY_cond $X=7.525 $Y=1.93
+ $X2=7.525 $Y2=1.605
r138 38 39 145.28 $w=1.7e-07 $l=1.7e-07 $layer=licon1_POLY $count=1 $X=7.51
+ $Y=1.93 $X2=7.51 $Y2=1.93
r139 36 49 46.2115 $w=3.3e-07 $l=1.65e-07 $layer=POLY_cond $X=6.605 $Y=1.93
+ $X2=6.605 $Y2=2.095
r140 35 38 36.5951 $w=2.83e-07 $l=9.05e-07 $layer=LI1_cond $X=6.605 $Y=1.952
+ $X2=7.51 $Y2=1.952
r141 35 36 145.28 $w=1.7e-07 $l=1.7e-07 $layer=licon1_POLY $count=1 $X=6.605
+ $Y=1.93 $X2=6.605 $Y2=1.93
r142 33 47 7.14116 $w=2.83e-07 $l=1.42e-07 $layer=LI1_cond $X=6.582 $Y=1.952
+ $X2=6.44 $Y2=1.952
r143 33 35 0.930042 $w=2.83e-07 $l=2.3e-08 $layer=LI1_cond $X=6.582 $Y=1.952
+ $X2=6.605 $Y2=1.952
r144 32 46 8.61065 $w=1.7e-07 $l=1.65e-07 $layer=LI1_cond $X=5.535 $Y=1.99
+ $X2=5.37 $Y2=1.99
r145 32 47 59.0428 $w=1.68e-07 $l=9.05e-07 $layer=LI1_cond $X=5.535 $Y=1.99
+ $X2=6.44 $Y2=1.99
r146 27 46 0.89609 $w=3.3e-07 $l=8.5e-08 $layer=LI1_cond $X=5.37 $Y=2.075
+ $X2=5.37 $Y2=1.99
r147 27 29 27.5888 $w=3.28e-07 $l=7.9e-07 $layer=LI1_cond $X=5.37 $Y=2.075
+ $X2=5.37 $Y2=2.865
r148 25 46 8.61065 $w=1.7e-07 $l=1.65e-07 $layer=LI1_cond $X=5.205 $Y=1.99
+ $X2=5.37 $Y2=1.99
r149 25 26 17.2888 $w=1.68e-07 $l=2.65e-07 $layer=LI1_cond $X=5.205 $Y=1.99
+ $X2=4.94 $Y2=1.99
r150 24 26 6.81649 $w=1.7e-07 $l=1.20208e-07 $layer=LI1_cond $X=4.855 $Y=1.905
+ $X2=4.94 $Y2=1.99
r151 23 44 6.6364 $w=1.7e-07 $l=2.3e-07 $layer=LI1_cond $X=4.855 $Y=1.135
+ $X2=4.855 $Y2=0.905
r152 23 24 50.2353 $w=1.68e-07 $l=7.7e-07 $layer=LI1_cond $X=4.855 $Y=1.135
+ $X2=4.855 $Y2=1.905
r153 21 52 297.404 $w=1.5e-07 $l=5.8e-07 $layer=POLY_cond $X=7.63 $Y=2.675
+ $X2=7.63 $Y2=2.095
r154 17 51 338.426 $w=1.5e-07 $l=6.6e-07 $layer=POLY_cond $X=7.63 $Y=0.945
+ $X2=7.63 $Y2=1.605
r155 11 36 46.2115 $w=3.3e-07 $l=1.65e-07 $layer=POLY_cond $X=6.605 $Y=1.765
+ $X2=6.605 $Y2=1.93
r156 11 13 548.66 $w=1.5e-07 $l=1.07e-06 $layer=POLY_cond $X=6.605 $Y=1.765
+ $X2=6.605 $Y2=0.695
r157 9 49 405.085 $w=1.5e-07 $l=7.9e-07 $layer=POLY_cond $X=6.515 $Y=2.885
+ $X2=6.515 $Y2=2.095
r158 2 29 600 $w=1.7e-07 $l=2.504e-07 $layer=licon1_PDIFF $count=1 $X=5.23
+ $Y=2.675 $X2=5.37 $Y2=2.865
r159 1 42 182 $w=1.7e-07 $l=2.71109e-07 $layer=licon1_NDIFF $count=1 $X=4.435
+ $Y=0.695 $X2=4.575 $Y2=0.905
.ends

.subckt PM_SKY130_FD_SC_LP__SRSDFSTP_1%A_1972_99# 1 2 9 11 12 15 17 23 25 26 27
+ 28 30 34 37 38 40 44 46 51 53 54 59
c143 54 0 1.58197e-19 $X=14.59 $Y=1.205
c144 53 0 1.55755e-19 $X=14.59 $Y=1.205
c145 40 0 1.08965e-19 $X=10.82 $Y=1.97
r146 54 63 41.5123 $w=3.3e-07 $l=1.65e-07 $layer=POLY_cond $X=14.59 $Y=1.205
+ $X2=14.59 $Y2=1.37
r147 53 56 4.1907 $w=3.28e-07 $l=1.2e-07 $layer=LI1_cond $X=14.59 $Y=1.205
+ $X2=14.59 $Y2=1.325
r148 53 54 145.28 $w=1.7e-07 $l=1.7e-07 $layer=licon1_POLY $count=1 $X=14.59
+ $Y=1.205 $X2=14.59 $Y2=1.205
r149 46 49 6.28605 $w=3.28e-07 $l=1.8e-07 $layer=LI1_cond $X=11.64 $Y=1.97
+ $X2=11.64 $Y2=2.15
r150 44 59 46.2115 $w=3.3e-07 $l=1.65e-07 $layer=POLY_cond $X=10.82 $Y=2.05
+ $X2=10.82 $Y2=1.885
r151 43 44 145.28 $w=1.7e-07 $l=1.7e-07 $layer=licon1_POLY $count=1 $X=10.82
+ $Y=2.05 $X2=10.82 $Y2=2.05
r152 40 43 2.7938 $w=3.28e-07 $l=8e-08 $layer=LI1_cond $X=10.82 $Y=1.97
+ $X2=10.82 $Y2=2.05
r153 39 51 1.34256 $w=1.7e-07 $l=8.5e-08 $layer=LI1_cond $X=13.015 $Y=1.325
+ $X2=12.93 $Y2=1.325
r154 38 56 4.62375 $w=1.7e-07 $l=1.65e-07 $layer=LI1_cond $X=14.425 $Y=1.325
+ $X2=14.59 $Y2=1.325
r155 38 39 91.9893 $w=1.68e-07 $l=1.41e-06 $layer=LI1_cond $X=14.425 $Y=1.325
+ $X2=13.015 $Y2=1.325
r156 36 51 5.16603 $w=1.7e-07 $l=8.5e-08 $layer=LI1_cond $X=12.93 $Y=1.41
+ $X2=12.93 $Y2=1.325
r157 36 37 30.9893 $w=1.68e-07 $l=4.75e-07 $layer=LI1_cond $X=12.93 $Y=1.41
+ $X2=12.93 $Y2=1.885
r158 32 51 5.16603 $w=1.7e-07 $l=8.5e-08 $layer=LI1_cond $X=12.93 $Y=1.24
+ $X2=12.93 $Y2=1.325
r159 32 34 9.13369 $w=1.68e-07 $l=1.4e-07 $layer=LI1_cond $X=12.93 $Y=1.24
+ $X2=12.93 $Y2=1.1
r160 31 46 4.62375 $w=1.7e-07 $l=1.65e-07 $layer=LI1_cond $X=11.805 $Y=1.97
+ $X2=11.64 $Y2=1.97
r161 30 37 6.81649 $w=1.7e-07 $l=1.20208e-07 $layer=LI1_cond $X=12.845 $Y=1.97
+ $X2=12.93 $Y2=1.885
r162 30 31 67.8503 $w=1.68e-07 $l=1.04e-06 $layer=LI1_cond $X=12.845 $Y=1.97
+ $X2=11.805 $Y2=1.97
r163 29 40 4.62375 $w=1.7e-07 $l=1.65e-07 $layer=LI1_cond $X=10.985 $Y=1.97
+ $X2=10.82 $Y2=1.97
r164 28 46 4.62375 $w=1.7e-07 $l=1.65e-07 $layer=LI1_cond $X=11.475 $Y=1.97
+ $X2=11.64 $Y2=1.97
r165 28 29 31.9679 $w=1.68e-07 $l=4.9e-07 $layer=LI1_cond $X=11.475 $Y=1.97
+ $X2=10.985 $Y2=1.97
r166 27 63 227.895 $w=1.75e-07 $l=5.7e-07 $layer=POLY_cond $X=14.667 $Y=1.94
+ $X2=14.667 $Y2=1.37
r167 23 27 36.7171 $w=2.5e-07 $l=1.25e-07 $layer=POLY_cond $X=14.705 $Y=2.065
+ $X2=14.705 $Y2=1.94
r168 23 25 97.364 $w=2.5e-07 $l=5.05e-07 $layer=POLY_cond $X=14.705 $Y=2.065
+ $X2=14.705 $Y2=2.57
r169 19 59 158.957 $w=1.5e-07 $l=3.1e-07 $layer=POLY_cond $X=10.73 $Y=1.575
+ $X2=10.73 $Y2=1.885
r170 18 26 20.4101 $w=1.5e-07 $l=7.5e-08 $layer=POLY_cond $X=10.37 $Y=1.5
+ $X2=10.295 $Y2=1.5
r171 17 19 26.9307 $w=1.5e-07 $l=1.06066e-07 $layer=POLY_cond $X=10.655 $Y=1.5
+ $X2=10.73 $Y2=1.575
r172 17 18 146.138 $w=1.5e-07 $l=2.85e-07 $layer=POLY_cond $X=10.655 $Y=1.5
+ $X2=10.37 $Y2=1.5
r173 13 26 5.30422 $w=1.5e-07 $l=7.5e-08 $layer=POLY_cond $X=10.295 $Y=1.425
+ $X2=10.295 $Y2=1.5
r174 13 15 302.532 $w=1.5e-07 $l=5.9e-07 $layer=POLY_cond $X=10.295 $Y=1.425
+ $X2=10.295 $Y2=0.835
r175 11 26 20.4101 $w=1.5e-07 $l=7.5e-08 $layer=POLY_cond $X=10.22 $Y=1.5
+ $X2=10.295 $Y2=1.5
r176 11 12 107.681 $w=1.5e-07 $l=2.1e-07 $layer=POLY_cond $X=10.22 $Y=1.5
+ $X2=10.01 $Y2=1.5
r177 7 12 26.9307 $w=1.5e-07 $l=1.06066e-07 $layer=POLY_cond $X=9.935 $Y=1.425
+ $X2=10.01 $Y2=1.5
r178 7 9 302.532 $w=1.5e-07 $l=5.9e-07 $layer=POLY_cond $X=9.935 $Y=1.425
+ $X2=9.935 $Y2=0.835
r179 2 49 600 $w=1.7e-07 $l=2.05061e-07 $layer=licon1_PDIFF $count=1 $X=11.495
+ $Y=2.005 $X2=11.64 $Y2=2.15
r180 1 34 182 $w=1.7e-07 $l=6.19516e-07 $layer=licon1_NDIFF $count=1 $X=12.675
+ $Y=0.595 $X2=12.93 $Y2=1.1
.ends

.subckt PM_SKY130_FD_SC_LP__SRSDFSTP_1%A_2216_99# 1 2 7 9 11 12 14 17 20 23 26
+ 27 28 29 32 33 34 35 37 39 43 49
c166 43 0 1.97565e-19 $X=13.69 $Y=0.63
c167 29 0 9.74383e-20 $X=15.745 $Y=0.34
c168 23 0 1.0685e-19 $X=11.79 $Y=1.29
c169 14 0 4.66987e-20 $X=13.165 $Y=2.57
c170 12 0 1.59391e-19 $X=13.165 $Y=1.37
r171 43 51 51.5841 $w=3.3e-07 $l=2.95e-07 $layer=POLY_cond $X=13.69 $Y=0.63
+ $X2=13.395 $Y2=0.63
r172 42 43 145.28 $w=1.7e-07 $l=1.7e-07 $layer=licon1_POLY $count=1 $X=13.69
+ $Y=0.63 $X2=13.69 $Y2=0.63
r173 39 42 10.1275 $w=3.28e-07 $l=2.9e-07 $layer=LI1_cond $X=13.69 $Y=0.34
+ $X2=13.69 $Y2=0.63
r174 35 47 11.4375 $w=3.36e-07 $l=4.45477e-07 $layer=LI1_cond $X=16.645 $Y=1.05
+ $X2=16.96 $Y2=0.735
r175 35 37 30.7824 $w=3.78e-07 $l=1.015e-06 $layer=LI1_cond $X=16.645 $Y=1.05
+ $X2=16.645 $Y2=2.065
r176 33 35 9.87124 $w=3.36e-07 $l=2.28583e-07 $layer=LI1_cond $X=16.455 $Y=0.965
+ $X2=16.645 $Y2=1.05
r177 33 34 35.2299 $w=1.68e-07 $l=5.4e-07 $layer=LI1_cond $X=16.455 $Y=0.965
+ $X2=15.915 $Y2=0.965
r178 32 34 6.81649 $w=1.7e-07 $l=1.20208e-07 $layer=LI1_cond $X=15.83 $Y=0.88
+ $X2=15.915 $Y2=0.965
r179 31 32 29.6845 $w=1.68e-07 $l=4.55e-07 $layer=LI1_cond $X=15.83 $Y=0.425
+ $X2=15.83 $Y2=0.88
r180 30 39 4.62375 $w=1.7e-07 $l=1.65e-07 $layer=LI1_cond $X=13.855 $Y=0.34
+ $X2=13.69 $Y2=0.34
r181 29 31 6.81649 $w=1.7e-07 $l=1.20208e-07 $layer=LI1_cond $X=15.745 $Y=0.34
+ $X2=15.83 $Y2=0.425
r182 29 30 123.305 $w=1.68e-07 $l=1.89e-06 $layer=LI1_cond $X=15.745 $Y=0.34
+ $X2=13.855 $Y2=0.34
r183 27 39 4.62375 $w=1.7e-07 $l=1.65e-07 $layer=LI1_cond $X=13.525 $Y=0.34
+ $X2=13.69 $Y2=0.34
r184 27 28 77.6364 $w=1.68e-07 $l=1.19e-06 $layer=LI1_cond $X=13.525 $Y=0.34
+ $X2=12.335 $Y2=0.34