* File: sky130_fd_sc_lp__dfbbn_2.pex.spice
* Created: Fri Aug 28 10:21:17 2020
* Program "Calibre xRC"
* Version "v2018.4_34.26"
* Nominal Temperature: 27C
* Circuit Temperature: 27C
* 
.subckt PM_SKY130_FD_SC_LP__DFBBN_2%CLK_N 2 5 7 9 12 14 17 19 20 21 26 27
r34 26 27 72.64 $w=1.7e-07 $l=3.4e-07 $layer=licon1_POLY $count=2 $X=0.27
+ $Y=1.075 $X2=0.27 $Y2=1.075
r35 20 21 12.9213 $w=3.28e-07 $l=3.7e-07 $layer=LI1_cond $X=0.27 $Y=1.665
+ $X2=0.27 $Y2=2.035
r36 19 20 12.9213 $w=3.28e-07 $l=3.7e-07 $layer=LI1_cond $X=0.27 $Y=1.295
+ $X2=0.27 $Y2=1.665
r37 19 27 7.68295 $w=3.28e-07 $l=2.2e-07 $layer=LI1_cond $X=0.27 $Y=1.295
+ $X2=0.27 $Y2=1.075
r38 15 17 123.064 $w=1.5e-07 $l=2.4e-07 $layer=POLY_cond $X=0.36 $Y=2.255
+ $X2=0.6 $Y2=2.255
r39 13 26 59.4528 $w=3.3e-07 $l=3.4e-07 $layer=POLY_cond $X=0.27 $Y=1.415
+ $X2=0.27 $Y2=1.075
r40 13 14 46.2115 $w=3.3e-07 $l=1.65e-07 $layer=POLY_cond $X=0.27 $Y=1.415
+ $X2=0.27 $Y2=1.58
r41 12 26 2.62292 $w=3.3e-07 $l=1.5e-08 $layer=POLY_cond $X=0.27 $Y=1.06
+ $X2=0.27 $Y2=1.075
r42 11 12 43.5886 $w=3.3e-07 $l=1.5e-07 $layer=POLY_cond $X=0.335 $Y=0.91
+ $X2=0.335 $Y2=1.06
r43 7 17 2.83073 $w=1.5e-07 $l=7.5e-08 $layer=POLY_cond $X=0.6 $Y=2.33 $X2=0.6
+ $Y2=2.255
r44 7 9 126.927 $w=1.5e-07 $l=3.95e-07 $layer=POLY_cond $X=0.6 $Y=2.33 $X2=0.6
+ $Y2=2.725
r45 5 11 212.798 $w=1.5e-07 $l=4.15e-07 $layer=POLY_cond $X=0.49 $Y=0.495
+ $X2=0.49 $Y2=0.91
r46 2 15 2.83073 $w=1.5e-07 $l=7.5e-08 $layer=POLY_cond $X=0.36 $Y=2.18 $X2=0.36
+ $Y2=2.255
r47 2 14 307.66 $w=1.5e-07 $l=6e-07 $layer=POLY_cond $X=0.36 $Y=2.18 $X2=0.36
+ $Y2=1.58
.ends

.subckt PM_SKY130_FD_SC_LP__DFBBN_2%D 2 3 5 7 8 10 13 15 17 21
c55 21 0 1.13211e-19 $X=1.92 $Y=1.345
c56 17 0 3.67314e-20 $X=1.92 $Y=1.165
r57 20 22 46.2115 $w=3.3e-07 $l=1.65e-07 $layer=POLY_cond $X=1.92 $Y=1.345
+ $X2=1.92 $Y2=1.51
r58 20 21 145.28 $w=1.7e-07 $l=1.7e-07 $layer=licon1_POLY $count=1 $X=1.92
+ $Y=1.345 $X2=1.92 $Y2=1.345
r59 17 20 31.475 $w=3.3e-07 $l=1.8e-07 $layer=POLY_cond $X=1.92 $Y=1.165
+ $X2=1.92 $Y2=1.345
r60 15 21 8.3814 $w=3.28e-07 $l=2.4e-07 $layer=LI1_cond $X=1.68 $Y=1.345
+ $X2=1.92 $Y2=1.345
r61 11 13 133.319 $w=1.5e-07 $l=2.6e-07 $layer=POLY_cond $X=1.98 $Y=2.095
+ $X2=2.24 $Y2=2.095
r62 8 10 91.58 $w=1.5e-07 $l=2.85e-07 $layer=POLY_cond $X=2.395 $Y=1.09
+ $X2=2.395 $Y2=0.805
r63 5 13 2.83073 $w=1.5e-07 $l=7.5e-08 $layer=POLY_cond $X=2.24 $Y=2.17 $X2=2.24
+ $Y2=2.095
r64 5 7 91.58 $w=1.5e-07 $l=2.85e-07 $layer=POLY_cond $X=2.24 $Y=2.17 $X2=2.24
+ $Y2=2.455
r65 4 17 21.2229 $w=1.5e-07 $l=1.65e-07 $layer=POLY_cond $X=2.085 $Y=1.165
+ $X2=1.92 $Y2=1.165
r66 3 8 26.9307 $w=1.5e-07 $l=1.06066e-07 $layer=POLY_cond $X=2.32 $Y=1.165
+ $X2=2.395 $Y2=1.09
r67 3 4 120.5 $w=1.5e-07 $l=2.35e-07 $layer=POLY_cond $X=2.32 $Y=1.165 $X2=2.085
+ $Y2=1.165
r68 2 11 2.83073 $w=1.5e-07 $l=7.5e-08 $layer=POLY_cond $X=1.98 $Y=2.02 $X2=1.98
+ $Y2=2.095
r69 2 22 261.511 $w=1.5e-07 $l=5.1e-07 $layer=POLY_cond $X=1.98 $Y=2.02 $X2=1.98
+ $Y2=1.51
.ends

.subckt PM_SKY130_FD_SC_LP__DFBBN_2%A_113_57# 1 2 7 8 9 10 14 18 19 20 21 22 25
+ 30 33 34 36 44 50 54 55 57 58 60 61 62 64 65 66 68 69 70 73 74 77 81 82 83 84
+ 88 96
c248 96 0 1.71827e-19 $X=7.61 $Y=1.345
c249 88 0 2.25888e-20 $X=7.61 $Y=1.51
c250 73 0 1.23337e-19 $X=8.51 $Y=1.865
c251 54 0 9.08694e-20 $X=3.54 $Y=1.255
c252 7 0 2.98096e-20 $X=1.395 $Y=1.375
r253 88 96 46.2115 $w=3.3e-07 $l=1.65e-07 $layer=POLY_cond $X=7.61 $Y=1.51
+ $X2=7.61 $Y2=1.345
r254 87 89 8.83531 $w=4.38e-07 $l=1.65e-07 $layer=LI1_cond $X=7.555 $Y=1.51
+ $X2=7.555 $Y2=1.675
r255 87 88 145.28 $w=1.7e-07 $l=1.7e-07 $layer=licon1_POLY $count=1 $X=7.61
+ $Y=1.51 $X2=7.61 $Y2=1.51
r256 84 87 8.90524 $w=4.38e-07 $l=3.4e-07 $layer=LI1_cond $X=7.555 $Y=1.17
+ $X2=7.555 $Y2=1.51
r257 81 83 7.01288 $w=3.53e-07 $l=1.65e-07 $layer=LI1_cond $X=0.827 $Y=1.465
+ $X2=0.827 $Y2=1.3
r258 81 82 72.64 $w=1.7e-07 $l=3.4e-07 $layer=licon1_POLY $count=2 $X=0.84
+ $Y=1.465 $X2=0.84 $Y2=1.465
r259 79 83 30.1207 $w=2.18e-07 $l=5.75e-07 $layer=LI1_cond $X=0.76 $Y=0.725
+ $X2=0.76 $Y2=1.3
r260 77 79 9.31567 $w=3.28e-07 $l=2.3e-07 $layer=LI1_cond $X=0.705 $Y=0.495
+ $X2=0.705 $Y2=0.725
r261 73 74 72.64 $w=1.7e-07 $l=3.4e-07 $layer=licon1_POLY $count=2 $X=8.51
+ $Y=1.865 $X2=8.51 $Y2=1.865
r262 71 73 43.9636 $w=2.68e-07 $l=1.03e-06 $layer=LI1_cond $X=8.48 $Y=2.895
+ $X2=8.48 $Y2=1.865
r263 69 71 7.28469 $w=1.7e-07 $l=1.72337e-07 $layer=LI1_cond $X=8.345 $Y=2.98
+ $X2=8.48 $Y2=2.895
r264 69 70 54.8021 $w=1.68e-07 $l=8.4e-07 $layer=LI1_cond $X=8.345 $Y=2.98
+ $X2=7.505 $Y2=2.98
r265 68 70 6.81649 $w=1.7e-07 $l=1.20208e-07 $layer=LI1_cond $X=7.42 $Y=2.895
+ $X2=7.505 $Y2=2.98
r266 68 89 79.5936 $w=1.68e-07 $l=1.22e-06 $layer=LI1_cond $X=7.42 $Y=2.895
+ $X2=7.42 $Y2=1.675
r267 65 84 6.36164 $w=1.7e-07 $l=2.2e-07 $layer=LI1_cond $X=7.335 $Y=1.17
+ $X2=7.555 $Y2=1.17
r268 65 66 42.7326 $w=1.68e-07 $l=6.55e-07 $layer=LI1_cond $X=7.335 $Y=1.17
+ $X2=6.68 $Y2=1.17
r269 64 66 6.81649 $w=1.7e-07 $l=1.20208e-07 $layer=LI1_cond $X=6.595 $Y=1.085
+ $X2=6.68 $Y2=1.17
r270 63 64 42.4064 $w=1.68e-07 $l=6.5e-07 $layer=LI1_cond $X=6.595 $Y=0.435
+ $X2=6.595 $Y2=1.085
r271 61 63 6.81649 $w=1.7e-07 $l=1.20208e-07 $layer=LI1_cond $X=6.51 $Y=0.35
+ $X2=6.595 $Y2=0.435
r272 61 62 106.016 $w=1.68e-07 $l=1.625e-06 $layer=LI1_cond $X=6.51 $Y=0.35
+ $X2=4.885 $Y2=0.35
r273 59 62 6.81649 $w=1.7e-07 $l=1.20208e-07 $layer=LI1_cond $X=4.8 $Y=0.435
+ $X2=4.885 $Y2=0.35
r274 59 60 40.4492 $w=1.68e-07 $l=6.2e-07 $layer=LI1_cond $X=4.8 $Y=0.435
+ $X2=4.8 $Y2=1.055
r275 57 60 6.81649 $w=1.7e-07 $l=1.20208e-07 $layer=LI1_cond $X=4.715 $Y=1.14
+ $X2=4.8 $Y2=1.055
r276 57 58 70.1337 $w=1.68e-07 $l=1.075e-06 $layer=LI1_cond $X=4.715 $Y=1.14
+ $X2=3.64 $Y2=1.14
r277 54 55 72.64 $w=1.7e-07 $l=3.4e-07 $layer=licon1_POLY $count=2 $X=3.54
+ $Y=1.255 $X2=3.54 $Y2=1.255
r278 52 58 6.87494 $w=1.7e-07 $l=1.36015e-07 $layer=LI1_cond $X=3.54 $Y=1.225
+ $X2=3.64 $Y2=1.14
r279 52 54 1.66364 $w=1.98e-07 $l=3e-08 $layer=LI1_cond $X=3.54 $Y=1.225
+ $X2=3.54 $Y2=1.255
r280 48 81 0.389558 $w=3.53e-07 $l=1.2e-08 $layer=LI1_cond $X=0.827 $Y=1.477
+ $X2=0.827 $Y2=1.465
r281 48 50 34.833 $w=3.53e-07 $l=1.073e-06 $layer=LI1_cond $X=0.827 $Y=1.477
+ $X2=0.827 $Y2=2.55
r282 44 74 76.939 $w=3.3e-07 $l=4.4e-07 $layer=POLY_cond $X=8.51 $Y=2.305
+ $X2=8.51 $Y2=1.865
r283 41 44 187.16 $w=1.5e-07 $l=3.65e-07 $layer=POLY_cond $X=8.145 $Y=2.38
+ $X2=8.51 $Y2=2.38
r284 40 55 46.2115 $w=3.3e-07 $l=1.65e-07 $layer=POLY_cond $X=3.54 $Y=1.09
+ $X2=3.54 $Y2=1.255
r285 38 82 62.0758 $w=3.3e-07 $l=3.55e-07 $layer=POLY_cond $X=0.84 $Y=1.82
+ $X2=0.84 $Y2=1.465
r286 37 82 2.62292 $w=3.3e-07 $l=1.5e-08 $layer=POLY_cond $X=0.84 $Y=1.45
+ $X2=0.84 $Y2=1.465
r287 34 41 2.83073 $w=1.5e-07 $l=7.5e-08 $layer=POLY_cond $X=8.145 $Y=2.455
+ $X2=8.145 $Y2=2.38
r288 34 36 91.58 $w=1.5e-07 $l=2.85e-07 $layer=POLY_cond $X=8.145 $Y=2.455
+ $X2=8.145 $Y2=2.74
r289 33 96 138.173 $w=1.5e-07 $l=4.3e-07 $layer=POLY_cond $X=7.67 $Y=0.915
+ $X2=7.67 $Y2=1.345
r290 30 40 184.596 $w=1.5e-07 $l=3.6e-07 $layer=POLY_cond $X=3.45 $Y=0.73
+ $X2=3.45 $Y2=1.09
r291 27 30 243.564 $w=1.5e-07 $l=4.75e-07 $layer=POLY_cond $X=3.45 $Y=0.255
+ $X2=3.45 $Y2=0.73
r292 23 25 282.021 $w=1.5e-07 $l=5.5e-07 $layer=POLY_cond $X=2.67 $Y=3.005
+ $X2=2.67 $Y2=2.455
r293 21 23 26.9307 $w=1.5e-07 $l=1.06066e-07 $layer=POLY_cond $X=2.595 $Y=3.08
+ $X2=2.67 $Y2=3.005
r294 21 22 476.872 $w=1.5e-07 $l=9.3e-07 $layer=POLY_cond $X=2.595 $Y=3.08
+ $X2=1.665 $Y2=3.08
r295 19 27 26.9307 $w=1.5e-07 $l=1.06066e-07 $layer=POLY_cond $X=3.375 $Y=0.18
+ $X2=3.45 $Y2=0.255
r296 19 20 938.362 $w=1.5e-07 $l=1.83e-06 $layer=POLY_cond $X=3.375 $Y=0.18
+ $X2=1.545 $Y2=0.18
r297 16 22 26.9307 $w=1.5e-07 $l=1.06066e-07 $layer=POLY_cond $X=1.59 $Y=3.005
+ $X2=1.665 $Y2=3.08
r298 16 18 225.617 $w=1.5e-07 $l=4.4e-07 $layer=POLY_cond $X=1.59 $Y=3.005
+ $X2=1.59 $Y2=2.565
r299 15 18 305.096 $w=1.5e-07 $l=5.95e-07 $layer=POLY_cond $X=1.59 $Y=1.97
+ $X2=1.59 $Y2=2.565
r300 12 14 253.819 $w=1.5e-07 $l=4.95e-07 $layer=POLY_cond $X=1.47 $Y=1.3
+ $X2=1.47 $Y2=0.805
r301 11 20 26.9307 $w=1.5e-07 $l=1.06066e-07 $layer=POLY_cond $X=1.47 $Y=0.255
+ $X2=1.545 $Y2=0.18
r302 11 14 282.021 $w=1.5e-07 $l=5.5e-07 $layer=POLY_cond $X=1.47 $Y=0.255
+ $X2=1.47 $Y2=0.805
r303 10 38 32.1775 $w=1.5e-07 $l=1.98997e-07 $layer=POLY_cond $X=1.005 $Y=1.895
+ $X2=0.84 $Y2=1.82
r304 9 15 26.9307 $w=1.5e-07 $l=1.06066e-07 $layer=POLY_cond $X=1.515 $Y=1.895
+ $X2=1.59 $Y2=1.97
r305 9 10 261.511 $w=1.5e-07 $l=5.1e-07 $layer=POLY_cond $X=1.515 $Y=1.895
+ $X2=1.005 $Y2=1.895
r306 8 37 32.1775 $w=1.5e-07 $l=1.98997e-07 $layer=POLY_cond $X=1.005 $Y=1.375
+ $X2=0.84 $Y2=1.45
r307 7 12 26.9307 $w=1.5e-07 $l=1.06066e-07 $layer=POLY_cond $X=1.395 $Y=1.375
+ $X2=1.47 $Y2=1.3
r308 7 8 199.979 $w=1.5e-07 $l=3.9e-07 $layer=POLY_cond $X=1.395 $Y=1.375
+ $X2=1.005 $Y2=1.375
r309 2 50 300 $w=1.7e-07 $l=2.03286e-07 $layer=licon1_PDIFF $count=2 $X=0.675
+ $Y=2.405 $X2=0.815 $Y2=2.55
r310 1 77 182 $w=1.7e-07 $l=2.71109e-07 $layer=licon1_NDIFF $count=1 $X=0.565
+ $Y=0.285 $X2=0.705 $Y2=0.495
.ends

.subckt PM_SKY130_FD_SC_LP__DFBBN_2%A_789_78# 1 2 9 13 17 21 25 26 29 30 33 35
+ 40 41 43 45 47 48 49
c131 41 0 1.52357e-19 $X=5.47 $Y=2.532
c132 35 0 1.76227e-19 $X=5.97 $Y=2.31
r133 48 57 45.9078 $w=4.1e-07 $l=1.65e-07 $layer=POLY_cond $X=7.03 $Y=1.57
+ $X2=7.03 $Y2=1.735
r134 48 56 45.9078 $w=4.1e-07 $l=1.65e-07 $layer=POLY_cond $X=7.03 $Y=1.57
+ $X2=7.03 $Y2=1.405
r135 47 49 8.48463 $w=2.98e-07 $l=1.65e-07 $layer=LI1_cond $X=6.99 $Y=1.585
+ $X2=6.825 $Y2=1.585
r136 47 48 145.28 $w=1.7e-07 $l=1.7e-07 $layer=licon1_POLY $count=1 $X=6.99
+ $Y=1.57 $X2=6.99 $Y2=1.57
r137 43 44 10.0214 $w=2.8e-07 $l=2.3e-07 $layer=LI1_cond $X=5.74 $Y=1.13
+ $X2=5.97 $Y2=1.13
r138 39 41 8.86124 $w=4.43e-07 $l=1.65e-07 $layer=LI1_cond $X=5.305 $Y=2.532
+ $X2=5.47 $Y2=2.532
r139 39 40 8.86124 $w=4.43e-07 $l=1.65e-07 $layer=LI1_cond $X=5.305 $Y=2.532
+ $X2=5.14 $Y2=2.532
r140 37 45 1.34256 $w=1.7e-07 $l=8.5e-08 $layer=LI1_cond $X=6.055 $Y=1.52
+ $X2=5.97 $Y2=1.52
r141 37 49 50.2353 $w=1.68e-07 $l=7.7e-07 $layer=LI1_cond $X=6.055 $Y=1.52
+ $X2=6.825 $Y2=1.52
r142 34 45 5.16603 $w=1.7e-07 $l=8.5e-08 $layer=LI1_cond $X=5.97 $Y=1.605
+ $X2=5.97 $Y2=1.52
r143 34 35 45.9947 $w=1.68e-07 $l=7.05e-07 $layer=LI1_cond $X=5.97 $Y=1.605
+ $X2=5.97 $Y2=2.31
r144 33 45 5.16603 $w=1.7e-07 $l=8.5e-08 $layer=LI1_cond $X=5.97 $Y=1.435
+ $X2=5.97 $Y2=1.52
r145 32 44 3.65648 $w=1.7e-07 $l=1.65e-07 $layer=LI1_cond $X=5.97 $Y=1.295
+ $X2=5.97 $Y2=1.13
r146 32 33 9.13369 $w=1.68e-07 $l=1.4e-07 $layer=LI1_cond $X=5.97 $Y=1.295
+ $X2=5.97 $Y2=1.435
r147 30 35 6.81649 $w=1.7e-07 $l=1.20208e-07 $layer=LI1_cond $X=5.885 $Y=2.395
+ $X2=5.97 $Y2=2.31
r148 30 41 27.0749 $w=1.68e-07 $l=4.15e-07 $layer=LI1_cond $X=5.885 $Y=2.395
+ $X2=5.47 $Y2=2.395
r149 29 40 50.2353 $w=1.68e-07 $l=7.7e-07 $layer=LI1_cond $X=4.37 $Y=2.395
+ $X2=5.14 $Y2=2.395
r150 26 51 43.7153 $w=3.3e-07 $l=2.5e-07 $layer=POLY_cond $X=4.27 $Y=1.92
+ $X2=4.02 $Y2=1.92
r151 25 26 145.28 $w=1.7e-07 $l=1.7e-07 $layer=licon1_POLY $count=1 $X=4.27
+ $Y=1.92 $X2=4.27 $Y2=1.92
r152 23 29 6.87494 $w=1.7e-07 $l=1.36015e-07 $layer=LI1_cond $X=4.27 $Y=2.31
+ $X2=4.37 $Y2=2.395
r153 23 25 21.6273 $w=1.98e-07 $l=3.9e-07 $layer=LI1_cond $X=4.27 $Y=2.31
+ $X2=4.27 $Y2=1.92
r154 21 57 297.404 $w=1.5e-07 $l=5.8e-07 $layer=POLY_cond $X=7.16 $Y=2.315
+ $X2=7.16 $Y2=1.735
r155 17 56 251.255 $w=1.5e-07 $l=4.9e-07 $layer=POLY_cond $X=7.16 $Y=0.915
+ $X2=7.16 $Y2=1.405
r156 11 51 21.2229 $w=1.5e-07 $l=1.65e-07 $layer=POLY_cond $X=4.02 $Y=2.085
+ $X2=4.02 $Y2=1.92
r157 11 13 189.723 $w=1.5e-07 $l=3.7e-07 $layer=POLY_cond $X=4.02 $Y=2.085
+ $X2=4.02 $Y2=2.455
r158 7 51 21.2229 $w=1.5e-07 $l=1.65e-07 $layer=POLY_cond $X=4.02 $Y=1.755
+ $X2=4.02 $Y2=1.92
r159 7 9 525.585 $w=1.5e-07 $l=1.025e-06 $layer=POLY_cond $X=4.02 $Y=1.755
+ $X2=4.02 $Y2=0.73
r160 2 39 600 $w=1.7e-07 $l=7.01516e-07 $layer=licon1_PDIFF $count=1 $X=5.165
+ $Y=1.895 $X2=5.305 $Y2=2.53
r161 1 43 182 $w=1.7e-07 $l=9.31316e-07 $layer=licon1_NDIFF $count=1 $X=5.525
+ $Y=0.3 $X2=5.74 $Y2=1.13
.ends

.subckt PM_SKY130_FD_SC_LP__DFBBN_2%SET_B 3 7 11 13 15 16 18 19 25 29 30
c127 30 0 7.79776e-20 $X=5 $Y=1.57
c128 18 0 1.31498e-19 $X=8.735 $Y=1.665
r129 29 32 46.2115 $w=3.3e-07 $l=1.65e-07 $layer=POLY_cond $X=5 $Y=1.57 $X2=5
+ $Y2=1.735
r130 29 31 46.2115 $w=3.3e-07 $l=1.65e-07 $layer=POLY_cond $X=5 $Y=1.57 $X2=5
+ $Y2=1.405
r131 29 30 145.28 $w=1.7e-07 $l=1.7e-07 $layer=licon1_POLY $count=1 $X=5 $Y=1.57
+ $X2=5 $Y2=1.57
r132 25 26 9.3 $w=1.7e-07 $l=1.7e-07 $layer=mcon $count=1 $X=8.88 $Y=1.665
+ $X2=8.88 $Y2=1.665
r133 21 30 9.3 $w=1.7e-07 $l=1.7e-07 $layer=mcon $count=1 $X=5.04 $Y=1.665
+ $X2=5.04 $Y2=1.665
r134 19 21 0.115467 $w=2.3e-07 $l=1.45e-07 $layer=MET1_cond $X=5.185 $Y=1.665
+ $X2=5.04 $Y2=1.665
r135 18 25 0.115467 $w=2.3e-07 $l=1.45e-07 $layer=MET1_cond $X=8.735 $Y=1.665
+ $X2=8.88 $Y2=1.665
r136 18 19 4.39356 $w=1.4e-07 $l=3.55e-06 $layer=MET1_cond $X=8.735 $Y=1.665
+ $X2=5.185 $Y2=1.665
r137 16 26 16.7628 $w=3.28e-07 $l=4.8e-07 $layer=LI1_cond $X=9.36 $Y=1.635
+ $X2=8.88 $Y2=1.635
r138 16 34 145.28 $w=1.7e-07 $l=1.7e-07 $layer=licon1_POLY $count=1 $X=9.41
+ $Y=1.635 $X2=9.41 $Y2=1.635
r139 13 34 79.8686 $w=3.09e-07 $l=5.23775e-07 $layer=POLY_cond $X=9.735 $Y=2.065
+ $X2=9.527 $Y2=1.635
r140 13 15 159.06 $w=1.5e-07 $l=4.95e-07 $layer=POLY_cond $X=9.735 $Y=2.065
+ $X2=9.735 $Y2=2.56
r141 9 34 38.532 $w=3.09e-07 $l=1.87029e-07 $layer=POLY_cond $X=9.48 $Y=1.47
+ $X2=9.527 $Y2=1.635
r142 9 11 284.585 $w=1.5e-07 $l=5.55e-07 $layer=POLY_cond $X=9.48 $Y=1.47
+ $X2=9.48 $Y2=0.915
r143 7 32 297.404 $w=1.5e-07 $l=5.8e-07 $layer=POLY_cond $X=5.09 $Y=2.315
+ $X2=5.09 $Y2=1.735
r144 3 31 402.521 $w=1.5e-07 $l=7.85e-07 $layer=POLY_cond $X=5.015 $Y=0.62
+ $X2=5.015 $Y2=1.405
.ends

.subckt PM_SKY130_FD_SC_LP__DFBBN_2%A_549_449# 1 2 9 13 17 20 21 24 25 26 28 29
+ 30 33 34 36 41
c139 34 0 1.52357e-19 $X=5.54 $Y=1.57
c140 13 0 7.79776e-20 $X=5.52 $Y=2.315
r141 40 41 9.2801 $w=4.58e-07 $l=1.65e-07 $layer=LI1_cond $X=3.255 $Y=2.455
+ $X2=3.42 $Y2=2.455
r142 37 40 2.08014 $w=4.58e-07 $l=8e-08 $layer=LI1_cond $X=3.175 $Y=2.455
+ $X2=3.255 $Y2=2.455
r143 34 44 46.2115 $w=3.3e-07 $l=1.65e-07 $layer=POLY_cond $X=5.54 $Y=1.57
+ $X2=5.54 $Y2=1.735
r144 34 43 46.2115 $w=3.3e-07 $l=1.65e-07 $layer=POLY_cond $X=5.54 $Y=1.57
+ $X2=5.54 $Y2=1.405
r145 33 34 145.28 $w=1.7e-07 $l=1.7e-07 $layer=licon1_POLY $count=1 $X=5.54
+ $Y=1.57 $X2=5.54 $Y2=1.57
r146 31 33 13.6198 $w=3.28e-07 $l=3.9e-07 $layer=LI1_cond $X=5.54 $Y=1.96
+ $X2=5.54 $Y2=1.57
r147 29 31 7.76618 $w=1.7e-07 $l=2.03101e-07 $layer=LI1_cond $X=5.375 $Y=2.045
+ $X2=5.54 $Y2=1.96
r148 29 30 42.7326 $w=1.68e-07 $l=6.55e-07 $layer=LI1_cond $X=5.375 $Y=2.045
+ $X2=4.72 $Y2=2.045
r149 28 30 6.81649 $w=1.7e-07 $l=1.20208e-07 $layer=LI1_cond $X=4.635 $Y=1.96
+ $X2=4.72 $Y2=2.045
r150 27 28 25.1176 $w=1.68e-07 $l=3.85e-07 $layer=LI1_cond $X=4.635 $Y=1.575
+ $X2=4.635 $Y2=1.96
r151 25 27 6.81649 $w=1.7e-07 $l=1.20208e-07 $layer=LI1_cond $X=4.55 $Y=1.49
+ $X2=4.635 $Y2=1.575
r152 25 26 36.5348 $w=1.68e-07 $l=5.6e-07 $layer=LI1_cond $X=4.55 $Y=1.49
+ $X2=3.99 $Y2=1.49
r153 23 26 6.81649 $w=1.7e-07 $l=1.20208e-07 $layer=LI1_cond $X=3.905 $Y=1.575
+ $X2=3.99 $Y2=1.49
r154 23 24 42.4064 $w=1.68e-07 $l=6.5e-07 $layer=LI1_cond $X=3.905 $Y=1.575
+ $X2=3.905 $Y2=2.225
r155 21 24 6.81649 $w=1.7e-07 $l=1.20208e-07 $layer=LI1_cond $X=3.82 $Y=2.31
+ $X2=3.905 $Y2=2.225
r156 21 41 26.0963 $w=1.68e-07 $l=4e-07 $layer=LI1_cond $X=3.82 $Y=2.31 $X2=3.42
+ $Y2=2.31
r157 20 37 6.6364 $w=1.7e-07 $l=2.3e-07 $layer=LI1_cond $X=3.175 $Y=2.225
+ $X2=3.175 $Y2=2.455
r158 20 36 83.1818 $w=1.68e-07 $l=1.275e-06 $layer=LI1_cond $X=3.175 $Y=2.225
+ $X2=3.175 $Y2=0.95
r159 15 36 6.45221 $w=2.23e-07 $l=1.12e-07 $layer=LI1_cond $X=3.147 $Y=0.838
+ $X2=3.147 $Y2=0.95
r160 15 17 5.78782 $w=2.23e-07 $l=1.13e-07 $layer=LI1_cond $X=3.147 $Y=0.838
+ $X2=3.147 $Y2=0.725
r161 13 44 297.404 $w=1.5e-07 $l=5.8e-07 $layer=POLY_cond $X=5.52 $Y=2.315
+ $X2=5.52 $Y2=1.735
r162 9 43 402.521 $w=1.5e-07 $l=7.85e-07 $layer=POLY_cond $X=5.45 $Y=0.62
+ $X2=5.45 $Y2=1.405
r163 2 40 600 $w=1.7e-07 $l=6.0597e-07 $layer=licon1_PDIFF $count=1 $X=2.745
+ $Y=2.245 $X2=3.255 $Y2=2.455
r164 1 17 182 $w=1.7e-07 $l=2.77489e-07 $layer=licon1_NDIFF $count=1 $X=2.9
+ $Y=0.595 $X2=3.12 $Y2=0.725
.ends

.subckt PM_SKY130_FD_SC_LP__DFBBN_2%A_223_119# 1 2 9 12 13 14 18 19 20 24 25 26
+ 28 29 30 31 33 34 35 38 41 43 47 51 54
c169 47 0 3.67314e-20 $X=2.46 $Y=1.645
c170 43 0 2.98096e-20 $X=2.295 $Y=1.96
c171 35 0 9.08694e-20 $X=2.825 $Y=1.66
c172 34 0 1.13211e-19 $X=2.75 $Y=1.645
c173 24 0 1.23337e-19 $X=7.635 $Y=2.56
r174 51 53 10.2083 $w=3.28e-07 $l=2.15e-07 $layer=LI1_cond $X=1.255 $Y=0.785
+ $X2=1.255 $Y2=1
r175 47 48 145.28 $w=1.7e-07 $l=1.7e-07 $layer=licon1_POLY $count=1 $X=2.46
+ $Y=1.645 $X2=2.46 $Y2=1.645
r176 45 47 10.0023 $w=2.63e-07 $l=2.3e-07 $layer=LI1_cond $X=2.427 $Y=1.875
+ $X2=2.427 $Y2=1.645
r177 44 54 2.76166 $w=1.7e-07 $l=1.65e-07 $layer=LI1_cond $X=1.54 $Y=1.96
+ $X2=1.375 $Y2=1.96
r178 43 45 7.24806 $w=1.7e-07 $l=1.69245e-07 $layer=LI1_cond $X=2.295 $Y=1.96
+ $X2=2.427 $Y2=1.875
r179 43 44 49.2567 $w=1.68e-07 $l=7.55e-07 $layer=LI1_cond $X=2.295 $Y=1.96
+ $X2=1.54 $Y2=1.96
r180 39 54 3.70735 $w=2.5e-07 $l=8.5e-08 $layer=LI1_cond $X=1.375 $Y=2.045
+ $X2=1.375 $Y2=1.96
r181 39 41 12.0483 $w=3.28e-07 $l=3.45e-07 $layer=LI1_cond $X=1.375 $Y=2.045
+ $X2=1.375 $Y2=2.39
r182 38 54 3.70735 $w=2.5e-07 $l=1.18427e-07 $layer=LI1_cond $X=1.295 $Y=1.875
+ $X2=1.375 $Y2=1.96
r183 38 53 57.0856 $w=1.68e-07 $l=8.75e-07 $layer=LI1_cond $X=1.295 $Y=1.875
+ $X2=1.295 $Y2=1
r184 35 36 51.4864 $w=2.2e-07 $l=2.35e-07 $layer=POLY_cond $X=2.825 $Y=1.66
+ $X2=3.06 $Y2=1.66
r185 34 48 50.7098 $w=3.3e-07 $l=2.9e-07 $layer=POLY_cond $X=2.75 $Y=1.645
+ $X2=2.46 $Y2=1.645
r186 34 35 16.3226 $w=3.3e-07 $l=8.21584e-08 $layer=POLY_cond $X=2.75 $Y=1.645
+ $X2=2.825 $Y2=1.66
r187 31 33 91.58 $w=1.5e-07 $l=2.85e-07 $layer=POLY_cond $X=8.415 $Y=1.31
+ $X2=8.415 $Y2=1.025
r188 29 31 26.9307 $w=1.5e-07 $l=1.06066e-07 $layer=POLY_cond $X=8.34 $Y=1.385
+ $X2=8.415 $Y2=1.31
r189 29 30 105.117 $w=1.5e-07 $l=2.05e-07 $layer=POLY_cond $X=8.34 $Y=1.385
+ $X2=8.135 $Y2=1.385
r190 27 30 26.9307 $w=1.5e-07 $l=1.06066e-07 $layer=POLY_cond $X=8.06 $Y=1.46
+ $X2=8.135 $Y2=1.385
r191 27 28 233.309 $w=1.5e-07 $l=4.55e-07 $layer=POLY_cond $X=8.06 $Y=1.46
+ $X2=8.06 $Y2=1.915
r192 25 28 26.9307 $w=1.5e-07 $l=1.06066e-07 $layer=POLY_cond $X=7.985 $Y=1.99
+ $X2=8.06 $Y2=1.915
r193 25 26 141.011 $w=1.5e-07 $l=2.75e-07 $layer=POLY_cond $X=7.985 $Y=1.99
+ $X2=7.71 $Y2=1.99
r194 22 24 264.074 $w=1.5e-07 $l=5.15e-07 $layer=POLY_cond $X=7.635 $Y=3.075
+ $X2=7.635 $Y2=2.56
r195 21 26 26.9307 $w=1.5e-07 $l=1.06066e-07 $layer=POLY_cond $X=7.635 $Y=2.065
+ $X2=7.71 $Y2=1.99
r196 21 24 253.819 $w=1.5e-07 $l=4.95e-07 $layer=POLY_cond $X=7.635 $Y=2.065
+ $X2=7.635 $Y2=2.56
r197 19 22 26.9307 $w=1.5e-07 $l=1.06066e-07 $layer=POLY_cond $X=7.56 $Y=3.15
+ $X2=7.635 $Y2=3.075
r198 19 20 2058.76 $w=1.5e-07 $l=4.015e-06 $layer=POLY_cond $X=7.56 $Y=3.15
+ $X2=3.545 $Y2=3.15
r199 16 20 26.9307 $w=1.5e-07 $l=1.06066e-07 $layer=POLY_cond $X=3.47 $Y=3.075
+ $X2=3.545 $Y2=3.15
r200 16 18 317.915 $w=1.5e-07 $l=6.2e-07 $layer=POLY_cond $X=3.47 $Y=3.075
+ $X2=3.47 $Y2=2.455
r201 15 18 156.394 $w=1.5e-07 $l=3.05e-07 $layer=POLY_cond $X=3.47 $Y=2.15
+ $X2=3.47 $Y2=2.455
r202 13 15 26.9307 $w=1.5e-07 $l=1.06066e-07 $layer=POLY_cond $X=3.395 $Y=2.075
+ $X2=3.47 $Y2=2.15
r203 13 14 133.319 $w=1.5e-07 $l=2.6e-07 $layer=POLY_cond $X=3.395 $Y=2.075
+ $X2=3.135 $Y2=2.075
r204 12 14 26.9307 $w=1.5e-07 $l=1.06066e-07 $layer=POLY_cond $X=3.06 $Y=2
+ $X2=3.135 $Y2=2.075
r205 11 36 11.7719 $w=1.5e-07 $l=1.5e-07 $layer=POLY_cond $X=3.06 $Y=1.81
+ $X2=3.06 $Y2=1.66
r206 11 12 97.4255 $w=1.5e-07 $l=1.9e-07 $layer=POLY_cond $X=3.06 $Y=1.81
+ $X2=3.06 $Y2=2
r207 7 35 11.7719 $w=1.5e-07 $l=1.8e-07 $layer=POLY_cond $X=2.825 $Y=1.48
+ $X2=2.825 $Y2=1.66
r208 7 9 346.117 $w=1.5e-07 $l=6.75e-07 $layer=POLY_cond $X=2.825 $Y=1.48
+ $X2=2.825 $Y2=0.805
r209 2 41 300 $w=1.7e-07 $l=2.05061e-07 $layer=licon1_PDIFF $count=2 $X=1.23
+ $Y=2.245 $X2=1.375 $Y2=2.39
r210 1 51 182 $w=1.7e-07 $l=2.504e-07 $layer=licon1_NDIFF $count=1 $X=1.115
+ $Y=0.595 $X2=1.255 $Y2=0.785
.ends

.subckt PM_SKY130_FD_SC_LP__DFBBN_2%A_1746_137# 1 2 7 9 14 18 22 23 27 29 31 32
+ 34 36 39 43 45 46 47 51 55 58 59 62 64 65 70 71 72 74 79 81 82
c178 82 0 1.68582e-19 $X=11.96 $Y=1.185
c179 62 0 1.38329e-19 $X=11.88 $Y=2.2
c180 46 0 1.41247e-19 $X=13.45 $Y=1.26
c181 43 0 1.31498e-19 $X=8.96 $Y=1.385
r182 81 82 30.474 $w=3.3e-07 $l=7.5e-08 $layer=POLY_cond $X=11.96 $Y=1.26
+ $X2=11.96 $Y2=1.185
r183 75 84 46.2115 $w=3.3e-07 $l=1.65e-07 $layer=POLY_cond $X=11.96 $Y=1.35
+ $X2=11.96 $Y2=1.515
r184 75 81 15.7375 $w=3.3e-07 $l=9e-08 $layer=POLY_cond $X=11.96 $Y=1.35
+ $X2=11.96 $Y2=1.26
r185 74 77 8.65224 $w=2.63e-07 $l=1.65e-07 $layer=LI1_cond $X=11.927 $Y=1.35
+ $X2=11.927 $Y2=1.515
r186 74 75 145.28 $w=1.7e-07 $l=1.7e-07 $layer=licon1_POLY $count=1 $X=11.96
+ $Y=1.35 $X2=11.96 $Y2=1.35
r187 65 80 46.2115 $w=3.3e-07 $l=1.65e-07 $layer=POLY_cond $X=9.05 $Y=2.205
+ $X2=9.05 $Y2=2.37
r188 65 79 46.2115 $w=3.3e-07 $l=1.65e-07 $layer=POLY_cond $X=9.05 $Y=2.205
+ $X2=9.05 $Y2=2.04
r189 64 67 2.7938 $w=3.28e-07 $l=8e-08 $layer=LI1_cond $X=9.05 $Y=2.205 $X2=9.05
+ $Y2=2.285
r190 64 65 145.28 $w=1.7e-07 $l=1.7e-07 $layer=licon1_POLY $count=1 $X=9.05
+ $Y=2.205 $X2=9.05 $Y2=2.205
r191 62 77 44.6898 $w=1.68e-07 $l=6.85e-07 $layer=LI1_cond $X=11.88 $Y=2.2
+ $X2=11.88 $Y2=1.515
r192 60 72 5.16603 $w=1.7e-07 $l=8.5e-08 $layer=LI1_cond $X=10.475 $Y=2.285
+ $X2=10.39 $Y2=2.285
r193 59 62 6.81649 $w=1.7e-07 $l=1.20208e-07 $layer=LI1_cond $X=11.795 $Y=2.285
+ $X2=11.88 $Y2=2.2
r194 59 60 86.1176 $w=1.68e-07 $l=1.32e-06 $layer=LI1_cond $X=11.795 $Y=2.285
+ $X2=10.475 $Y2=2.285
r195 58 72 1.34256 $w=1.7e-07 $l=8.5e-08 $layer=LI1_cond $X=10.39 $Y=2.2
+ $X2=10.39 $Y2=2.285
r196 58 71 67.5241 $w=1.68e-07 $l=1.035e-06 $layer=LI1_cond $X=10.39 $Y=2.2
+ $X2=10.39 $Y2=1.165
r197 53 71 8.64139 $w=3.38e-07 $l=1.7e-07 $layer=LI1_cond $X=10.305 $Y=0.995
+ $X2=10.305 $Y2=1.165
r198 53 55 3.55902 $w=3.38e-07 $l=1.05e-07 $layer=LI1_cond $X=10.305 $Y=0.995
+ $X2=10.305 $Y2=0.89
r199 52 70 8.61065 $w=1.7e-07 $l=1.65e-07 $layer=LI1_cond $X=10.115 $Y=2.285
+ $X2=9.95 $Y2=2.285
r200 51 72 5.16603 $w=1.7e-07 $l=8.5e-08 $layer=LI1_cond $X=10.305 $Y=2.285
+ $X2=10.39 $Y2=2.285
r201 51 52 12.3957 $w=1.68e-07 $l=1.9e-07 $layer=LI1_cond $X=10.305 $Y=2.285
+ $X2=10.115 $Y2=2.285
r202 48 67 4.62375 $w=1.7e-07 $l=1.65e-07 $layer=LI1_cond $X=9.215 $Y=2.285
+ $X2=9.05 $Y2=2.285
r203 47 70 8.61065 $w=1.7e-07 $l=1.65e-07 $layer=LI1_cond $X=9.785 $Y=2.285
+ $X2=9.95 $Y2=2.285
r204 47 48 37.1872 $w=1.68e-07 $l=5.7e-07 $layer=LI1_cond $X=9.785 $Y=2.285
+ $X2=9.215 $Y2=2.285
r205 41 43 79.4787 $w=1.5e-07 $l=1.55e-07 $layer=POLY_cond $X=8.805 $Y=1.385
+ $X2=8.96 $Y2=1.385
r206 37 46 20.4101 $w=1.5e-07 $l=7.5e-08 $layer=POLY_cond $X=13.45 $Y=1.335
+ $X2=13.45 $Y2=1.26
r207 37 39 420.468 $w=1.5e-07 $l=8.2e-07 $layer=POLY_cond $X=13.45 $Y=1.335
+ $X2=13.45 $Y2=2.155
r208 34 46 20.4101 $w=1.5e-07 $l=7.5e-08 $layer=POLY_cond $X=13.45 $Y=1.185
+ $X2=13.45 $Y2=1.26
r209 34 36 102.827 $w=1.5e-07 $l=3.2e-07 $layer=POLY_cond $X=13.45 $Y=1.185
+ $X2=13.45 $Y2=0.865
r210 33 45 12.05 $w=1.5e-07 $l=8e-08 $layer=POLY_cond $X=12.535 $Y=1.26
+ $X2=12.455 $Y2=1.26
r211 32 46 5.30422 $w=1.5e-07 $l=7.5e-08 $layer=POLY_cond $X=13.375 $Y=1.26
+ $X2=13.45 $Y2=1.26
r212 32 33 430.723 $w=1.5e-07 $l=8.4e-07 $layer=POLY_cond $X=13.375 $Y=1.26
+ $X2=12.535 $Y2=1.26
r213 29 45 12.05 $w=1.5e-07 $l=7.74597e-08 $layer=POLY_cond $X=12.46 $Y=1.185
+ $X2=12.455 $Y2=1.26
r214 29 31 170.307 $w=1.5e-07 $l=5.3e-07 $layer=POLY_cond $X=12.46 $Y=1.185
+ $X2=12.46 $Y2=0.655
r215 25 45 12.05 $w=1.5e-07 $l=7.74597e-08 $layer=POLY_cond $X=12.45 $Y=1.335
+ $X2=12.455 $Y2=1.26
r216 25 27 515.33 $w=1.5e-07 $l=1.005e-06 $layer=POLY_cond $X=12.45 $Y=1.335
+ $X2=12.45 $Y2=2.34
r217 24 81 21.2229 $w=1.5e-07 $l=1.65e-07 $layer=POLY_cond $X=12.125 $Y=1.26
+ $X2=11.96 $Y2=1.26
r218 23 45 12.05 $w=1.5e-07 $l=8e-08 $layer=POLY_cond $X=12.375 $Y=1.26
+ $X2=12.455 $Y2=1.26
r219 23 24 128.191 $w=1.5e-07 $l=2.5e-07 $layer=POLY_cond $X=12.375 $Y=1.26
+ $X2=12.125 $Y2=1.26
r220 22 82 170.307 $w=1.5e-07 $l=5.3e-07 $layer=POLY_cond $X=12.03 $Y=0.655
+ $X2=12.03 $Y2=1.185
r221 18 84 423.032 $w=1.5e-07 $l=8.25e-07 $layer=POLY_cond $X=12.02 $Y=2.34
+ $X2=12.02 $Y2=1.515
r222 14 80 189.723 $w=1.5e-07 $l=3.7e-07 $layer=POLY_cond $X=8.99 $Y=2.74
+ $X2=8.99 $Y2=2.37
r223 10 43 2.83073 $w=1.5e-07 $l=7.5e-08 $layer=POLY_cond $X=8.96 $Y=1.46
+ $X2=8.96 $Y2=1.385
r224 10 79 297.404 $w=1.5e-07 $l=5.8e-07 $layer=POLY_cond $X=8.96 $Y=1.46
+ $X2=8.96 $Y2=2.04
r225 7 41 2.83073 $w=1.5e-07 $l=7.5e-08 $layer=POLY_cond $X=8.805 $Y=1.31
+ $X2=8.805 $Y2=1.385
r226 7 9 91.58 $w=1.5e-07 $l=2.85e-07 $layer=POLY_cond $X=8.805 $Y=1.31
+ $X2=8.805 $Y2=1.025
r227 2 70 300 $w=1.7e-07 $l=2.86575e-07 $layer=licon1_PDIFF $count=2 $X=9.81
+ $Y=2.14 $X2=9.95 $Y2=2.365
r228 1 55 182 $w=1.7e-07 $l=3.89776e-07 $layer=licon1_NDIFF $count=1 $X=10
+ $Y=0.595 $X2=10.22 $Y2=0.89
.ends

.subckt PM_SKY130_FD_SC_LP__DFBBN_2%A_1542_428# 1 2 7 9 14 15 16 19 23 26 27 29
+ 30 37
c96 30 0 9.01378e-20 $X=9.955 $Y=1.205
c97 27 0 1.71827e-19 $X=7.905 $Y=2.12
c98 26 0 2.25888e-20 $X=7.85 $Y=2.415
r99 33 37 28.8521 $w=3.3e-07 $l=1.65e-07 $layer=POLY_cond $X=9.96 $Y=1.51
+ $X2=10.125 $Y2=1.51
r100 33 34 6.12014 $w=3.3e-07 $l=3.5e-08 $layer=POLY_cond $X=9.96 $Y=1.51
+ $X2=9.925 $Y2=1.51
r101 32 33 145.28 $w=1.7e-07 $l=1.7e-07 $layer=licon1_POLY $count=1 $X=9.96
+ $Y=1.51 $X2=9.96 $Y2=1.51
r102 30 32 13.7306 $w=2.71e-07 $l=3.05e-07 $layer=LI1_cond $X=9.955 $Y=1.205
+ $X2=9.955 $Y2=1.51
r103 26 27 12.2403 $w=4.38e-07 $l=2.95e-07 $layer=LI1_cond $X=7.905 $Y=2.415
+ $X2=7.905 $Y2=2.12
r104 24 29 2.76166 $w=1.7e-07 $l=1.65e-07 $layer=LI1_cond $X=8.285 $Y=1.205
+ $X2=8.12 $Y2=1.205
r105 23 30 3.46554 $w=1.7e-07 $l=1.7e-07 $layer=LI1_cond $X=9.785 $Y=1.205
+ $X2=9.955 $Y2=1.205
r106 23 24 97.861 $w=1.68e-07 $l=1.5e-06 $layer=LI1_cond $X=9.785 $Y=1.205
+ $X2=8.285 $Y2=1.205
r107 21 29 3.70735 $w=2.5e-07 $l=1.18427e-07 $layer=LI1_cond $X=8.04 $Y=1.29
+ $X2=8.12 $Y2=1.205
r108 21 27 54.1497 $w=1.68e-07 $l=8.3e-07 $layer=LI1_cond $X=8.04 $Y=1.29
+ $X2=8.04 $Y2=2.12
r109 17 29 3.70735 $w=2.5e-07 $l=8.5e-08 $layer=LI1_cond $X=8.12 $Y=1.12
+ $X2=8.12 $Y2=1.205
r110 17 19 13.2706 $w=3.28e-07 $l=3.8e-07 $layer=LI1_cond $X=8.12 $Y=1.12
+ $X2=8.12 $Y2=0.74
r111 15 16 53.9552 $w=1.9e-07 $l=1.5e-07 $layer=POLY_cond $X=10.145 $Y=1.915
+ $X2=10.145 $Y2=2.065
r112 14 16 159.06 $w=1.5e-07 $l=4.95e-07 $layer=POLY_cond $X=10.165 $Y=2.56
+ $X2=10.165 $Y2=2.065
r113 10 37 21.2229 $w=1.5e-07 $l=1.65e-07 $layer=POLY_cond $X=10.125 $Y=1.675
+ $X2=10.125 $Y2=1.51
r114 10 15 123.064 $w=1.5e-07 $l=2.4e-07 $layer=POLY_cond $X=10.125 $Y=1.675
+ $X2=10.125 $Y2=1.915
r115 7 34 21.2229 $w=1.5e-07 $l=1.65e-07 $layer=POLY_cond $X=9.925 $Y=1.345
+ $X2=9.925 $Y2=1.51
r116 7 9 138.173 $w=1.5e-07 $l=4.3e-07 $layer=POLY_cond $X=9.925 $Y=1.345
+ $X2=9.925 $Y2=0.915
r117 2 26 600 $w=1.7e-07 $l=3.37824e-07 $layer=licon1_PDIFF $count=1 $X=7.71
+ $Y=2.14 $X2=7.85 $Y2=2.415
r118 1 19 91 $w=1.7e-07 $l=4.41588e-07 $layer=licon1_NDIFF $count=2 $X=7.745
+ $Y=0.595 $X2=8.12 $Y2=0.74
.ends

.subckt PM_SKY130_FD_SC_LP__DFBBN_2%A_1191_21# 1 2 9 11 13 14 18 21 26 27 28 29
+ 30 32 36
c110 30 0 6.64683e-20 $X=10.985 $Y=1.855
c111 26 0 7.76368e-20 $X=10.82 $Y=1.51
c112 9 0 1.70135e-19 $X=6.03 $Y=0.955
r113 38 40 1.74861 $w=3.3e-07 $l=1e-08 $layer=POLY_cond $X=10.515 $Y=1.51
+ $X2=10.525 $Y2=1.51
r114 34 36 16.5952 $w=2.48e-07 $l=3.6e-07 $layer=LI1_cond $X=11.345 $Y=0.83
+ $X2=11.345 $Y2=0.47
r115 30 32 10.826 $w=3.28e-07 $l=3.1e-07 $layer=LI1_cond $X=10.985 $Y=1.855
+ $X2=11.295 $Y2=1.855
r116 28 34 7.14316 $w=1.7e-07 $l=1.62019e-07 $layer=LI1_cond $X=11.22 $Y=0.915
+ $X2=11.345 $Y2=0.83
r117 28 29 15.3316 $w=1.68e-07 $l=2.35e-07 $layer=LI1_cond $X=11.22 $Y=0.915
+ $X2=10.985 $Y2=0.915
r118 27 40 51.5841 $w=3.3e-07 $l=2.95e-07 $layer=POLY_cond $X=10.82 $Y=1.51
+ $X2=10.525 $Y2=1.51
r119 26 27 145.28 $w=1.7e-07 $l=1.7e-07 $layer=licon1_POLY $count=1 $X=10.82
+ $Y=1.51 $X2=10.82 $Y2=1.51
r120 24 30 6.71475 $w=3.35e-07 $l=4.04166e-07 $layer=LI1_cond $X=10.82 $Y=1.525
+ $X2=10.985 $Y2=1.855
r121 24 26 0.523838 $w=3.28e-07 $l=1.5e-08 $layer=LI1_cond $X=10.82 $Y=1.525
+ $X2=10.82 $Y2=1.51
r122 23 29 7.76618 $w=1.7e-07 $l=2.03101e-07 $layer=LI1_cond $X=10.82 $Y=1
+ $X2=10.985 $Y2=0.915
r123 23 26 17.8105 $w=3.28e-07 $l=5.1e-07 $layer=LI1_cond $X=10.82 $Y=1
+ $X2=10.82 $Y2=1.51
r124 19 40 21.2229 $w=1.5e-07 $l=1.65e-07 $layer=POLY_cond $X=10.525 $Y=1.675
+ $X2=10.525 $Y2=1.51
r125 19 21 453.798 $w=1.5e-07 $l=8.85e-07 $layer=POLY_cond $X=10.525 $Y=1.675
+ $X2=10.525 $Y2=2.56
r126 16 38 21.2229 $w=1.5e-07 $l=1.65e-07 $layer=POLY_cond $X=10.515 $Y=1.345
+ $X2=10.515 $Y2=1.51
r127 16 18 351.245 $w=1.5e-07 $l=6.85e-07 $layer=POLY_cond $X=10.515 $Y=1.345
+ $X2=10.515 $Y2=0.66
r128 15 18 207.67 $w=1.5e-07 $l=4.05e-07 $layer=POLY_cond $X=10.515 $Y=0.255
+ $X2=10.515 $Y2=0.66
r129 13 15 26.9307 $w=1.5e-07 $l=1.06066e-07 $layer=POLY_cond $X=10.44 $Y=0.18
+ $X2=10.515 $Y2=0.255
r130 13 14 2222.84 $w=1.5e-07 $l=4.335e-06 $layer=POLY_cond $X=10.44 $Y=0.18
+ $X2=6.105 $Y2=0.18
r131 9 11 697.362 $w=1.5e-07 $l=1.36e-06 $layer=POLY_cond $X=6.03 $Y=0.955
+ $X2=6.03 $Y2=2.315
r132 7 14 26.9307 $w=1.5e-07 $l=1.06066e-07 $layer=POLY_cond $X=6.03 $Y=0.255
+ $X2=6.105 $Y2=0.18
r133 7 9 358.936 $w=1.5e-07 $l=7e-07 $layer=POLY_cond $X=6.03 $Y=0.255 $X2=6.03
+ $Y2=0.955
r134 2 32 600 $w=1.7e-07 $l=2.03286e-07 $layer=licon1_PDIFF $count=1 $X=11.155
+ $Y=1.71 $X2=11.295 $Y2=1.855
r135 1 36 182 $w=1.7e-07 $l=2.98831e-07 $layer=licon1_NDIFF $count=1 $X=11.16
+ $Y=0.235 $X2=11.305 $Y2=0.47
.ends

.subckt PM_SKY130_FD_SC_LP__DFBBN_2%RESET_B 2 5 9 13 15 21 22
c38 22 0 1.68582e-19 $X=11.51 $Y=1.345
c39 5 0 7.76368e-20 $X=11.51 $Y=2.03