* File: sky130_fd_sc_lp__clkinv_16.pex.spice
* Created: Wed Sep  2 09:40:19 2020
* Program "Calibre xRC"
* Version "v2018.4_34.26"
* Nominal Temperature: 27C
* Circuit Temperature: 27C
* 
.subckt PM_SKY130_FD_SC_LP__CLKINV_16%A 3 7 11 15 19 23 27 31 35 39 43 47 51 55
+ 59 63 67 71 75 79 83 87 91 95 99 103 107 111 115 119 123 127 131 135 139 143
+ 147 151 155 159 161 220 223 231 236 241 246 251 256 261 266 270
r374 267 270 0.692933 $w=2.3e-07 $l=1.08e-06 $layer=MET1_cond $X=9.3 $Y=1.295
+ $X2=10.38 $Y2=1.295
r375 266 270 4.65 $w=1.7e-07 $l=3.4e-07 $layer=mcon $count=2 $X=10.38 $Y=1.295
+ $X2=10.38 $Y2=1.295
r376 266 267 4.65 $w=1.7e-07 $l=3.4e-07 $layer=mcon $count=2 $X=9.3 $Y=1.295
+ $X2=9.3 $Y2=1.295
r377 262 267 0.708973 $w=2.3e-07 $l=1.105e-06 $layer=MET1_cond $X=8.195 $Y=1.295
+ $X2=9.3 $Y2=1.295
r378 261 262 9.3 $w=1.7e-07 $l=1.7e-07 $layer=mcon $count=1 $X=8.195 $Y=1.295
+ $X2=8.195 $Y2=1.295
r379 257 262 0.55178 $w=2.3e-07 $l=8.6e-07 $layer=MET1_cond $X=7.335 $Y=1.295
+ $X2=8.195 $Y2=1.295
r380 256 257 9.3 $w=1.7e-07 $l=1.7e-07 $layer=mcon $count=1 $X=7.335 $Y=1.295
+ $X2=7.335 $Y2=1.295
r381 252 257 0.55178 $w=2.3e-07 $l=8.6e-07 $layer=MET1_cond $X=6.475 $Y=1.295
+ $X2=7.335 $Y2=1.295
r382 251 252 9.3 $w=1.7e-07 $l=1.7e-07 $layer=mcon $count=1 $X=6.475 $Y=1.295
+ $X2=6.475 $Y2=1.295
r383 241 242 9.3 $w=1.7e-07 $l=1.7e-07 $layer=mcon $count=1 $X=4.755 $Y=1.295
+ $X2=4.755 $Y2=1.295
r384 237 242 0.554988 $w=2.3e-07 $l=8.65e-07 $layer=MET1_cond $X=3.89 $Y=1.295
+ $X2=4.755 $Y2=1.295
r385 236 237 9.3 $w=1.7e-07 $l=1.7e-07 $layer=mcon $count=1 $X=3.89 $Y=1.295
+ $X2=3.89 $Y2=1.295
r386 232 237 0.548572 $w=2.3e-07 $l=8.55e-07 $layer=MET1_cond $X=3.035 $Y=1.295
+ $X2=3.89 $Y2=1.295
r387 231 232 9.3 $w=1.7e-07 $l=1.7e-07 $layer=mcon $count=1 $X=3.035 $Y=1.295
+ $X2=3.035 $Y2=1.295
r388 227 232 0.702557 $w=2.3e-07 $l=1.095e-06 $layer=MET1_cond $X=1.94 $Y=1.295
+ $X2=3.035 $Y2=1.295
r389 224 227 0.692933 $w=2.3e-07 $l=1.08e-06 $layer=MET1_cond $X=0.86 $Y=1.295
+ $X2=1.94 $Y2=1.295
r390 223 227 4.65 $w=1.7e-07 $l=3.4e-07 $layer=mcon $count=2 $X=1.94 $Y=1.295
+ $X2=1.94 $Y2=1.295
r391 223 224 4.65 $w=1.7e-07 $l=3.4e-07 $layer=mcon $count=2 $X=0.86 $Y=1.295
+ $X2=0.86 $Y2=1.295
r392 218 220 30.6007 $w=3.3e-07 $l=1.75e-07 $layer=POLY_cond $X=10.38 $Y=1.46
+ $X2=10.555 $Y2=1.46
r393 216 218 44.5896 $w=3.3e-07 $l=2.55e-07 $layer=POLY_cond $X=10.125 $Y=1.46
+ $X2=10.38 $Y2=1.46
r394 215 216 75.1904 $w=3.3e-07 $l=4.3e-07 $layer=POLY_cond $X=9.695 $Y=1.46
+ $X2=10.125 $Y2=1.46
r395 214 215 75.1904 $w=3.3e-07 $l=4.3e-07 $layer=POLY_cond $X=9.265 $Y=1.46
+ $X2=9.695 $Y2=1.46
r396 213 266 1.23877 $w=1.623e-06 $l=1.65e-07 $layer=LI1_cond $X=9.732 $Y=1.46
+ $X2=9.732 $Y2=1.295
r397 213 218 58.112 $w=1.7e-07 $l=4.25e-07 $layer=licon1_POLY $count=2 $X=10.38
+ $Y=1.46 $X2=10.38 $Y2=1.46
r398 212 214 42.841 $w=3.3e-07 $l=2.45e-07 $layer=POLY_cond $X=9.02 $Y=1.46
+ $X2=9.265 $Y2=1.46
r399 212 213 58.112 $w=1.7e-07 $l=4.25e-07 $layer=licon1_POLY $count=2 $X=9.02
+ $Y=1.46 $X2=9.02 $Y2=1.46
r400 210 212 32.3493 $w=3.3e-07 $l=1.85e-07 $layer=POLY_cond $X=8.835 $Y=1.46
+ $X2=9.02 $Y2=1.46
r401 209 210 75.1904 $w=3.3e-07 $l=4.3e-07 $layer=POLY_cond $X=8.405 $Y=1.46
+ $X2=8.835 $Y2=1.46
r402 207 209 36.7209 $w=3.3e-07 $l=2.1e-07 $layer=POLY_cond $X=8.195 $Y=1.46
+ $X2=8.405 $Y2=1.46
r403 207 261 145.28 $w=1.7e-07 $l=1.7e-07 $layer=licon1_POLY $count=1 $X=8.195
+ $Y=1.46 $X2=8.195 $Y2=1.46
r404 205 207 38.4695 $w=3.3e-07 $l=2.2e-07 $layer=POLY_cond $X=7.975 $Y=1.46
+ $X2=8.195 $Y2=1.46
r405 204 205 75.1904 $w=3.3e-07 $l=4.3e-07 $layer=POLY_cond $X=7.545 $Y=1.46
+ $X2=7.975 $Y2=1.46
r406 202 204 36.7209 $w=3.3e-07 $l=2.1e-07 $layer=POLY_cond $X=7.335 $Y=1.46
+ $X2=7.545 $Y2=1.46
r407 202 256 145.28 $w=1.7e-07 $l=1.7e-07 $layer=licon1_POLY $count=1 $X=7.335
+ $Y=1.46 $X2=7.335 $Y2=1.46
r408 200 202 38.4695 $w=3.3e-07 $l=2.2e-07 $layer=POLY_cond $X=7.115 $Y=1.46
+ $X2=7.335 $Y2=1.46
r409 199 200 75.1904 $w=3.3e-07 $l=4.3e-07 $layer=POLY_cond $X=6.685 $Y=1.46
+ $X2=7.115 $Y2=1.46
r410 197 199 36.7209 $w=3.3e-07 $l=2.1e-07 $layer=POLY_cond $X=6.475 $Y=1.46
+ $X2=6.685 $Y2=1.46
r411 197 251 145.28 $w=1.7e-07 $l=1.7e-07 $layer=licon1_POLY $count=1 $X=6.475
+ $Y=1.46 $X2=6.475 $Y2=1.46
r412 195 197 38.4695 $w=3.3e-07 $l=2.2e-07 $layer=POLY_cond $X=6.255 $Y=1.46
+ $X2=6.475 $Y2=1.46
r413 194 195 75.1904 $w=3.3e-07 $l=4.3e-07 $layer=POLY_cond $X=5.825 $Y=1.46
+ $X2=6.255 $Y2=1.46
r414 192 194 37.5952 $w=3.3e-07 $l=2.15e-07 $layer=POLY_cond $X=5.61 $Y=1.46
+ $X2=5.825 $Y2=1.46
r415 192 246 145.28 $w=1.7e-07 $l=1.7e-07 $layer=licon1_POLY $count=1 $X=5.61
+ $Y=1.46 $X2=5.61 $Y2=1.46
r416 190 192 37.5952 $w=3.3e-07 $l=2.15e-07 $layer=POLY_cond $X=5.395 $Y=1.46
+ $X2=5.61 $Y2=1.46
r417 189 190 75.1904 $w=3.3e-07 $l=4.3e-07 $layer=POLY_cond $X=4.965 $Y=1.46
+ $X2=5.395 $Y2=1.46
r418 187 189 36.7209 $w=3.3e-07 $l=2.1e-07 $layer=POLY_cond $X=4.755 $Y=1.46
+ $X2=4.965 $Y2=1.46
r419 187 241 145.28 $w=1.7e-07 $l=1.7e-07 $layer=licon1_POLY $count=1 $X=4.755
+ $Y=1.46 $X2=4.755 $Y2=1.46
r420 185 187 38.4695 $w=3.3e-07 $l=2.2e-07 $layer=POLY_cond $X=4.535 $Y=1.46
+ $X2=4.755 $Y2=1.46
r421 184 185 75.1904 $w=3.3e-07 $l=4.3e-07 $layer=POLY_cond $X=4.105 $Y=1.46
+ $X2=4.535 $Y2=1.46
r422 182 184 37.5952 $w=3.3e-07 $l=2.15e-07 $layer=POLY_cond $X=3.89 $Y=1.46
+ $X2=4.105 $Y2=1.46
r423 182 236 145.28 $w=1.7e-07 $l=1.7e-07 $layer=licon1_POLY $count=1 $X=3.89
+ $Y=1.46 $X2=3.89 $Y2=1.46
r424 180 182 37.5952 $w=3.3e-07 $l=2.15e-07 $layer=POLY_cond $X=3.675 $Y=1.46
+ $X2=3.89 $Y2=1.46
r425 179 180 75.1904 $w=3.3e-07 $l=4.3e-07 $layer=POLY_cond $X=3.245 $Y=1.46
+ $X2=3.675 $Y2=1.46
r426 177 179 36.7209 $w=3.3e-07 $l=2.1e-07 $layer=POLY_cond $X=3.035 $Y=1.46
+ $X2=3.245 $Y2=1.46
r427 177 231 145.28 $w=1.7e-07 $l=1.7e-07 $layer=licon1_POLY $count=1 $X=3.035
+ $Y=1.46 $X2=3.035 $Y2=1.46
r428 175 177 38.4695 $w=3.3e-07 $l=2.2e-07 $layer=POLY_cond $X=2.815 $Y=1.46
+ $X2=3.035 $Y2=1.46
r429 174 175 75.1904 $w=3.3e-07 $l=4.3e-07 $layer=POLY_cond $X=2.385 $Y=1.46
+ $X2=2.815 $Y2=1.46
r430 172 174 28.8521 $w=3.3e-07 $l=1.65e-07 $layer=POLY_cond $X=2.22 $Y=1.46
+ $X2=2.385 $Y2=1.46
r431 170 172 46.3382 $w=3.3e-07 $l=2.65e-07 $layer=POLY_cond $X=1.955 $Y=1.46
+ $X2=2.22 $Y2=1.46
r432 169 170 75.1904 $w=3.3e-07 $l=4.3e-07 $layer=POLY_cond $X=1.525 $Y=1.46
+ $X2=1.955 $Y2=1.46
r433 168 169 75.1904 $w=3.3e-07 $l=4.3e-07 $layer=POLY_cond $X=1.095 $Y=1.46
+ $X2=1.525 $Y2=1.46
r434 167 223 1.17376 $w=1.713e-06 $l=1.65e-07 $layer=LI1_cond $X=1.447 $Y=1.46
+ $X2=1.447 $Y2=1.295
r435 167 172 58.112 $w=1.7e-07 $l=4.25e-07 $layer=licon1_POLY $count=2 $X=2.22
+ $Y=1.46 $X2=2.22 $Y2=1.46
r436 166 168 41.0924 $w=3.3e-07 $l=2.35e-07 $layer=POLY_cond $X=0.86 $Y=1.46
+ $X2=1.095 $Y2=1.46
r437 166 167 58.112 $w=1.7e-07 $l=4.25e-07 $layer=licon1_POLY $count=2 $X=0.86
+ $Y=1.46 $X2=0.86 $Y2=1.46
r438 163 166 34.0979 $w=3.3e-07 $l=1.95e-07 $layer=POLY_cond $X=0.665 $Y=1.46
+ $X2=0.86 $Y2=1.46
r439 161 252 0.554988 $w=2.3e-07 $l=8.65e-07 $layer=MET1_cond $X=5.61 $Y=1.295
+ $X2=6.475 $Y2=1.295
r440 161 242 0.548572 $w=2.3e-07 $l=8.55e-07 $layer=MET1_cond $X=5.61 $Y=1.295
+ $X2=4.755 $Y2=1.295
r441 161 246 9.3 $w=1.7e-07 $l=1.7e-07 $layer=mcon $count=1 $X=5.61 $Y=1.295
+ $X2=5.61 $Y2=1.295
r442 157 220 21.2229 $w=1.5e-07 $l=1.65e-07 $layer=POLY_cond $X=10.555 $Y=1.625
+ $X2=10.555 $Y2=1.46
r443 157 159 430.723 $w=1.5e-07 $l=8.4e-07 $layer=POLY_cond $X=10.555 $Y=1.625
+ $X2=10.555 $Y2=2.465
r444 153 216 21.2229 $w=1.5e-07 $l=1.65e-07 $layer=POLY_cond $X=10.125 $Y=1.625
+ $X2=10.125 $Y2=1.46
r445 153 155 430.723 $w=1.5e-07 $l=8.4e-07 $layer=POLY_cond $X=10.125 $Y=1.625
+ $X2=10.125 $Y2=2.465
r446 149 215 21.2229 $w=1.5e-07 $l=1.65e-07 $layer=POLY_cond $X=9.695 $Y=1.625
+ $X2=9.695 $Y2=1.46
r447 149 151 430.723 $w=1.5e-07 $l=8.4e-07 $layer=POLY_cond $X=9.695 $Y=1.625
+ $X2=9.695 $Y2=2.465
r448 145 214 21.2229 $w=1.5e-07 $l=1.65e-07 $layer=POLY_cond $X=9.265 $Y=1.625
+ $X2=9.265 $Y2=1.46
r449 145 147 430.723 $w=1.5e-07 $l=8.4e-07 $layer=POLY_cond $X=9.265 $Y=1.625
+ $X2=9.265 $Y2=2.465
r450 141 210 21.2229 $w=1.5e-07 $l=1.65e-07 $layer=POLY_cond $X=8.835 $Y=1.625
+ $X2=8.835 $Y2=1.46
r451 141 143 430.723 $w=1.5e-07 $l=8.4e-07 $layer=POLY_cond $X=8.835 $Y=1.625
+ $X2=8.835 $Y2=2.465
r452 137 210 21.2229 $w=1.5e-07 $l=1.65e-07 $layer=POLY_cond $X=8.835 $Y=1.295
+ $X2=8.835 $Y2=1.46
r453 137 139 376.883 $w=1.5e-07 $l=7.35e-07 $layer=POLY_cond $X=8.835 $Y=1.295
+ $X2=8.835 $Y2=0.56
r454 133 209 21.2229 $w=1.5e-07 $l=1.65e-07 $layer=POLY_cond $X=8.405 $Y=1.625
+ $X2=8.405 $Y2=1.46
r455 133 135 430.723 $w=1.5e-07 $l=8.4e-07 $layer=POLY_cond $X=8.405 $Y=1.625
+ $X2=8.405 $Y2=2.465
r456 129 209 21.2229 $w=1.5e-07 $l=1.65e-07 $layer=POLY_cond $X=8.405 $Y=1.295
+ $X2=8.405 $Y2=1.46
r457 129 131 376.883 $w=1.5e-07 $l=7.35e-07 $layer=POLY_cond $X=8.405 $Y=1.295
+ $X2=8.405 $Y2=0.56
r458 125 205 21.2229 $w=1.5e-07 $l=1.65e-07 $layer=POLY_cond $X=7.975 $Y=1.625
+ $X2=7.975 $Y2=1.46
r459 125 127 430.723 $w=1.5e-07 $l=8.4e-07 $layer=POLY_cond $X=7.975 $Y=1.625
+ $X2=7.975 $Y2=2.465
r460 121 205 21.2229 $w=1.5e-07 $l=1.65e-07 $layer=POLY_cond $X=7.975 $Y=1.295
+ $X2=7.975 $Y2=1.46
r461 121 123 376.883 $w=1.5e-07 $l=7.35e-07 $layer=POLY_cond $X=7.975 $Y=1.295
+ $X2=7.975 $Y2=0.56
r462 117 204 21.2229 $w=1.5e-07 $l=1.65e-07 $layer=POLY_cond $X=7.545 $Y=1.625
+ $X2=7.545 $Y2=1.46
r463 117 119 430.723 $w=1.5e-07 $l=8.4e-07 $layer=POLY_cond $X=7.545 $Y=1.625
+ $X2=7.545 $Y2=2.465
r464 113 204 21.2229 $w=1.5e-07 $l=1.65e-07 $layer=POLY_cond $X=7.545 $Y=1.295
+ $X2=7.545 $Y2=1.46
r465 113 115 376.883 $w=1.5e-07 $l=7.35e-07 $layer=POLY_cond $X=7.545 $Y=1.295
+ $X2=7.545 $Y2=0.56
r466 109 200 21.2229 $w=1.5e-07 $l=1.65e-07 $layer=POLY_cond $X=7.115 $Y=1.625
+ $X2=7.115 $Y2=1.46
r467 109 111 430.723 $w=1.5e-07 $l=8.4e-07 $layer=POLY_cond $X=7.115 $Y=1.625
+ $X2=7.115 $Y2=2.465
r468 105 200 21.2229 $w=1.5e-07 $l=1.65e-07 $layer=POLY_cond $X=7.115 $Y=1.295
+ $X2=7.115 $Y2=1.46
r469 105 107 376.883 $w=1.5e-07 $l=7.35e-07 $layer=POLY_cond $X=7.115 $Y=1.295
+ $X2=7.115 $Y2=0.56
r470 101 199 21.2229 $w=1.5e-07 $l=1.65e-07 $layer=POLY_cond $X=6.685 $Y=1.625
+ $X2=6.685 $Y2=1.46
r471 101 103 430.723 $w=1.5e-07 $l=8.4e-07 $layer=POLY_cond $X=6.685 $Y=1.625
+ $X2=6.685 $Y2=2.465
r472 97 199 21.2229 $w=1.5e-07 $l=1.65e-07 $layer=POLY_cond $X=6.685 $Y=1.295
+ $X2=6.685 $Y2=1.46
r473 97 99 376.883 $w=1.5e-07 $l=7.35e-07 $layer=POLY_cond $X=6.685 $Y=1.295
+ $X2=6.685 $Y2=0.56
r474 93 195 21.2229 $w=1.5e-07 $l=1.65e-07 $layer=POLY_cond $X=6.255 $Y=1.625
+ $X2=6.255 $Y2=1.46
r475 93 95 430.723 $w=1.5e-07 $l=8.4e-07 $layer=POLY_cond $X=6.255 $Y=1.625
+ $X2=6.255 $Y2=2.465
r476 89 195 21.2229 $w=1.5e-07 $l=1.65e-07 $layer=POLY_cond $X=6.255 $Y=1.295
+ $X2=6.255 $Y2=1.46
r477 89 91 376.883 $w=1.5e-07 $l=7.35e-07 $layer=POLY_cond $X=6.255 $Y=1.295
+ $X2=6.255 $Y2=0.56
r478 85 194 21.2229 $w=1.5e-07 $l=1.65e-07 $layer=POLY_cond $X=5.825 $Y=1.625
+ $X2=5.825 $Y2=1.46
r479 85 87 430.723 $w=1.5e-07 $l=8.4e-07 $layer=POLY_cond $X=5.825 $Y=1.625
+ $X2=5.825 $Y2=2.465
r480 81 194 21.2229 $w=1.5e-07 $l=1.65e-07 $layer=POLY_cond $X=5.825 $Y=1.295
+ $X2=5.825 $Y2=1.46
r481 81 83 376.883 $w=1.5e-07 $l=7.35e-07 $layer=POLY_cond $X=5.825 $Y=1.295
+ $X2=5.825 $Y2=0.56
r482 77 190 21.2229 $w=1.5e-07 $l=1.65e-07 $layer=POLY_cond $X=5.395 $Y=1.625
+ $X2=5.395 $Y2=1.46
r483 77 79 430.723 $w=1.5e-07 $l=8.4e-07 $layer=POLY_cond $X=5.395 $Y=1.625
+ $X2=5.395 $Y2=2.465
r484 73 190 21.2229 $w=1.5e-07 $l=1.65e-07 $layer=POLY_cond $X=5.395 $Y=1.295
+ $X2=5.395 $Y2=1.46
r485 73 75 376.883 $w=1.5e-07 $l=7.35e-07 $layer=POLY_cond $X=5.395 $Y=1.295
+ $X2=5.395 $Y2=0.56
r486 69 189 21.2229 $w=1.5e-07 $l=1.65e-07 $layer=POLY_cond $X=4.965 $Y=1.625
+ $X2=4.965 $Y2=1.46
r487 69 71 430.723 $w=1.5e-07 $l=8.4e-07 $layer=POLY_cond $X=4.965 $Y=1.625
+ $X2=4.965 $Y2=2.465
r488 65 189 21.2229 $w=1.5e-07 $l=1.65e-07 $layer=POLY_cond $X=4.965 $Y=1.295
+ $X2=4.965 $Y2=1.46
r489 65 67 376.883 $w=1.5e-07 $l=7.35e-07 $layer=POLY_cond $X=4.965 $Y=1.295
+ $X2=4.965 $Y2=0.56
r490 61 185 21.2229 $w=1.5e-07 $l=1.65e-07 $layer=POLY_cond $X=4.535 $Y=1.625
+ $X2=4.535 $Y2=1.46
r491 61 63 430.723 $w=1.5e-07 $l=8.4e-07 $layer=POLY_cond $X=4.535 $Y=1.625
+ $X2=4.535 $Y2=2.465
r492 57 185 21.2229 $w=1.5e-07 $l=1.65e-07 $layer=POLY_cond $X=4.535 $Y=1.295
+ $X2=4.535 $Y2=1.46
r493 57 59 376.883 $w=1.5e-07 $l=7.35e-07 $layer=POLY_cond $X=4.535 $Y=1.295
+ $X2=4.535 $Y2=0.56
r494 53 184 21.2229 $w=1.5e-07 $l=1.65e-07 $layer=POLY_cond $X=4.105 $Y=1.625
+ $X2=4.105 $Y2=1.46
r495 53 55 430.723 $w=1.5e-07 $l=8.4e-07 $layer=POLY_cond $X=4.105 $Y=1.625
+ $X2=4.105 $Y2=2.465
r496 49 184 21.2229 $w=1.5e-07 $l=1.65e-07 $layer=POLY_cond $X=4.105 $Y=1.295
+ $X2=4.105 $Y2=1.46
r497 49 51 376.883 $w=1.5e-07 $l=7.35e-07 $layer=POLY_cond $X=4.105 $Y=1.295
+ $X2=4.105 $Y2=0.56
r498 45 180 21.2229 $w=1.5e-07 $l=1.65e-07 $layer=POLY_cond $X=3.675 $Y=1.625
+ $X2=3.675 $Y2=1.46
r499 45 47 430.723 $w=1.5e-07 $l=8.4e-07 $layer=POLY_cond $X=3.675 $Y=1.625
+ $X2=3.675 $Y2=2.465
r500 41 180 21.2229 $w=1.5e-07 $l=1.65e-07 $layer=POLY_cond $X=3.675 $Y=1.295
+ $X2=3.675 $Y2=1.46
r501 41 43 376.883 $w=1.5e-07 $l=7.35e-07 $layer=POLY_cond $X=3.675 $Y=1.295
+ $X2=3.675 $Y2=0.56
r502 37 179 21.2229 $w=1.5e-07 $l=1.65e-07 $layer=POLY_cond $X=3.245 $Y=1.625
+ $X2=3.245 $Y2=1.46
r503 37 39 430.723 $w=1.5e-07 $l=8.4e-07 $layer=POLY_cond $X=3.245 $Y=1.625
+ $X2=3.245 $Y2=2.465
r504 33 179 21.2229 $w=1.5e-07 $l=1.65e-07 $layer=POLY_cond $X=3.245 $Y=1.295
+ $X2=3.245 $Y2=1.46
r505 33 35 376.883 $w=1.5e-07 $l=7.35e-07 $layer=POLY_cond $X=3.245 $Y=1.295
+ $X2=3.245 $Y2=0.56
r506 29 175 21.2229 $w=1.5e-07 $l=1.65e-07 $layer=POLY_cond $X=2.815 $Y=1.625
+ $X2=2.815 $Y2=1.46
r507 29 31 430.723 $w=1.5e-07 $l=8.4e-07 $layer=POLY_cond $X=2.815 $Y=1.625
+ $X2=2.815 $Y2=2.465
r508 25 175 21.2229 $w=1.5e-07 $l=1.65e-07 $layer=POLY_cond $X=2.815 $Y=1.295
+ $X2=2.815 $Y2=1.46
r509 25 27 376.883 $w=1.5e-07 $l=7.35e-07 $layer=POLY_cond $X=2.815 $Y=1.295
+ $X2=2.815 $Y2=0.56
r510 21 174 21.2229 $w=1.5e-07 $l=1.65e-07 $layer=POLY_cond $X=2.385 $Y=1.625
+ $X2=2.385 $Y2=1.46
r511 21 23 430.723 $w=1.5e-07 $l=8.4e-07 $layer=POLY_cond $X=2.385 $Y=1.625
+ $X2=2.385 $Y2=2.465
r512 17 174 21.2229 $w=1.5e-07 $l=1.65e-07 $layer=POLY_cond $X=2.385 $Y=1.295
+ $X2=2.385 $Y2=1.46
r513 17 19 376.883 $w=1.5e-07 $l=7.35e-07 $layer=POLY_cond $X=2.385 $Y=1.295
+ $X2=2.385 $Y2=0.56
r514 13 170 21.2229 $w=1.5e-07 $l=1.65e-07 $layer=POLY_cond $X=1.955 $Y=1.625
+ $X2=1.955 $Y2=1.46
r515 13 15 430.723 $w=1.5e-07 $l=8.4e-07 $layer=POLY_cond $X=1.955 $Y=1.625
+ $X2=1.955 $Y2=2.465
r516 9 169 21.2229 $w=1.5e-07 $l=1.65e-07 $layer=POLY_cond $X=1.525 $Y=1.625
+ $X2=1.525 $Y2=1.46
r517 9 11 430.723 $w=1.5e-07 $l=8.4e-07 $layer=POLY_cond $X=1.525 $Y=1.625
+ $X2=1.525 $Y2=2.465
r518 5 168 21.2229 $w=1.5e-07 $l=1.65e-07 $layer=POLY_cond $X=1.095 $Y=1.625
+ $X2=1.095 $Y2=1.46
r519 5 7 430.723 $w=1.5e-07 $l=8.4e-07 $layer=POLY_cond $X=1.095 $Y=1.625
+ $X2=1.095 $Y2=2.465
r520 1 163 21.2229 $w=1.5e-07 $l=1.65e-07 $layer=POLY_cond $X=0.665 $Y=1.625
+ $X2=0.665 $Y2=1.46
r521 1 3 430.723 $w=1.5e-07 $l=8.4e-07 $layer=POLY_cond $X=0.665 $Y=1.625
+ $X2=0.665 $Y2=2.465
.ends

.subckt PM_SKY130_FD_SC_LP__CLKINV_16%VPWR 1 2 3 4 5 6 7 8 9 10 11 12 13 42 46
+ 50 56 62 68 74 78 82 88 94 100 106 110 114 118 120 124 125 127 128 130 131 132
+ 133 135 136 138 139 140 141 142 148 163 178 184 187 190 193 196 200
r228 199 200 9.3 $w=1.7e-07 $l=1.7e-07 $layer=mcon $count=1 $X=10.8 $Y=3.33
+ $X2=10.8 $Y2=3.33
r229 196 197 4.65 $w=1.7e-07 $l=3.4e-07 $layer=mcon $count=2 $X=9.84 $Y=3.33
+ $X2=9.84 $Y2=3.33
r230 193 194 9.3 $w=1.7e-07 $l=1.7e-07 $layer=mcon $count=1 $X=6.48 $Y=3.33
+ $X2=6.48 $Y2=3.33
r231 187 188 9.3 $w=1.7e-07 $l=1.7e-07 $layer=mcon $count=1 $X=2.16 $Y=3.33
+ $X2=2.16 $Y2=3.33
r232 184 185 4.65 $w=1.7e-07 $l=3.4e-07 $layer=mcon $count=2 $X=1.2 $Y=3.33
+ $X2=1.2 $Y2=3.33
r233 182 200 0.133793 $w=4.9e-07 $l=4.8e-07 $layer=MET1_cond $X=10.32 $Y=3.33
+ $X2=10.8 $Y2=3.33
r234 182 197 0.133793 $w=4.9e-07 $l=4.8e-07 $layer=MET1_cond $X=10.32 $Y=3.33
+ $X2=9.84 $Y2=3.33
r235 181 182 9.3 $w=1.7e-07 $l=1.7e-07 $layer=mcon $count=1 $X=10.32 $Y=3.33
+ $X2=10.32 $Y2=3.33
r236 179 196 7.24004 $w=1.7e-07 $l=1.3e-07 $layer=LI1_cond $X=10.04 $Y=3.33
+ $X2=9.91 $Y2=3.33
r237 179 181 18.2674 $w=1.68e-07 $l=2.8e-07 $layer=LI1_cond $X=10.04 $Y=3.33
+ $X2=10.32 $Y2=3.33
r238 178 199 4.00962 $w=1.7e-07 $l=2e-07 $layer=LI1_cond $X=10.64 $Y=3.33
+ $X2=10.84 $Y2=3.33
r239 178 181 20.877 $w=1.68e-07 $l=3.2e-07 $layer=LI1_cond $X=10.64 $Y=3.33
+ $X2=10.32 $Y2=3.33
r240 177 197 0.267585 $w=4.9e-07 $l=9.6e-07 $layer=MET1_cond $X=8.88 $Y=3.33
+ $X2=9.84 $Y2=3.33
r241 176 177 4.65 $w=1.7e-07 $l=3.4e-07 $layer=mcon $count=2 $X=8.88 $Y=3.33
+ $X2=8.88 $Y2=3.33
r242 174 177 0.267585 $w=4.9e-07 $l=9.6e-07 $layer=MET1_cond $X=7.92 $Y=3.33
+ $X2=8.88 $Y2=3.33
r243 173 174 4.65 $w=1.7e-07 $l=3.4e-07 $layer=mcon $count=2 $X=7.92 $Y=3.33
+ $X2=7.92 $Y2=3.33
r244 171 174 0.267585 $w=4.9e-07 $l=9.6e-07 $layer=MET1_cond $X=6.96 $Y=3.33
+ $X2=7.92 $Y2=3.33
r245 171 194 0.133793 $w=4.9e-07 $l=4.8e-07 $layer=MET1_cond $X=6.96 $Y=3.33
+ $X2=6.48 $Y2=3.33
r246 170 171 9.3 $w=1.7e-07 $l=1.7e-07 $layer=mcon $count=1 $X=6.96 $Y=3.33
+ $X2=6.96 $Y2=3.33
r247 168 193 7.24004 $w=1.7e-07 $l=1.3e-07 $layer=LI1_cond $X=6.6 $Y=3.33
+ $X2=6.47 $Y2=3.33
r248 168 170 23.4866 $w=1.68e-07 $l=3.6e-07 $layer=LI1_cond $X=6.6 $Y=3.33
+ $X2=6.96 $Y2=3.33
r249 167 194 0.133793 $w=4.9e-07 $l=4.8e-07 $layer=MET1_cond $X=6 $Y=3.33
+ $X2=6.48 $Y2=3.33
r250 166 167 9.3 $w=1.7e-07 $l=1.7e-07 $layer=mcon $count=1 $X=6 $Y=3.33 $X2=6
+ $Y2=3.33
r251 164 190 7.24004 $w=1.7e-07 $l=1.3e-07 $layer=LI1_cond $X=5.74 $Y=3.33
+ $X2=5.61 $Y2=3.33
r252 164 166 16.9626 $w=1.68e-07 $l=2.6e-07 $layer=LI1_cond $X=5.74 $Y=3.33
+ $X2=6 $Y2=3.33
r253 163 193 7.24004 $w=1.7e-07 $l=1.3e-07 $layer=LI1_cond $X=6.34 $Y=3.33
+ $X2=6.47 $Y2=3.33
r254 163 166 22.1818 $w=1.68e-07 $l=3.4e-07 $layer=LI1_cond $X=6.34 $Y=3.33
+ $X2=6 $Y2=3.33
r255 161 162 4.65 $w=1.7e-07 $l=3.4e-07 $layer=mcon $count=2 $X=4.56 $Y=3.33
+ $X2=4.56 $Y2=3.33
r256 159 162 0.267585 $w=4.9e-07 $l=9.6e-07 $layer=MET1_cond $X=3.6 $Y=3.33
+ $X2=4.56 $Y2=3.33
r257 158 159 4.65 $w=1.7e-07 $l=3.4e-07 $layer=mcon $count=2 $X=3.6 $Y=3.33
+ $X2=3.6 $Y2=3.33
r258 156 159 0.267585 $w=4.9e-07 $l=9.6e-07 $layer=MET1_cond $X=2.64 $Y=3.33
+ $X2=3.6 $Y2=3.33
r259 156 188 0.133793 $w=4.9e-07 $l=4.8e-07 $layer=MET1_cond $X=2.64 $Y=3.33
+ $X2=2.16 $Y2=3.33
r260 155 156 9.3 $w=1.7e-07 $l=1.7e-07 $layer=mcon $count=1 $X=2.64 $Y=3.33
+ $X2=2.64 $Y2=3.33
r261 153 187 7.24004 $w=1.7e-07 $l=1.3e-07 $layer=LI1_cond $X=2.3 $Y=3.33
+ $X2=2.17 $Y2=3.33
r262 153 155 22.1818 $w=1.68e-07 $l=3.4e-07 $layer=LI1_cond $X=2.3 $Y=3.33
+ $X2=2.64 $Y2=3.33
r263 152 188 0.133793 $w=4.9e-07 $l=4.8e-07 $layer=MET1_cond $X=1.68 $Y=3.33
+ $X2=2.16 $Y2=3.33
r264 152 185 0.133793 $w=4.9e-07 $l=4.8e-07 $layer=MET1_cond $X=1.68 $Y=3.33
+ $X2=1.2 $Y2=3.33
r265 151 152 9.3 $w=1.7e-07 $l=1.7e-07 $layer=mcon $count=1 $X=1.68 $Y=3.33
+ $X2=1.68 $Y2=3.33
r266 149 184 7.24004 $w=1.7e-07 $l=1.3e-07 $layer=LI1_cond $X=1.44 $Y=3.33
+ $X2=1.31 $Y2=3.33
r267 149 151 15.6578 $w=1.68e-07 $l=2.4e-07 $layer=LI1_cond $X=1.44 $Y=3.33
+ $X2=1.68 $Y2=3.33
r268 148 187 7.24004 $w=1.7e-07 $l=1.3e-07 $layer=LI1_cond $X=2.04 $Y=3.33
+ $X2=2.17 $Y2=3.33
r269 148 151 23.4866 $w=1.68e-07 $l=3.6e-07 $layer=LI1_cond $X=2.04 $Y=3.33
+ $X2=1.68 $Y2=3.33
r270 146 185 0.267585 $w=4.9e-07 $l=9.6e-07 $layer=MET1_cond $X=0.24 $Y=3.33
+ $X2=1.2 $Y2=3.33
r271 145 146 9.3 $w=1.7e-07 $l=1.7e-07 $layer=mcon $count=1 $X=0.24 $Y=3.33
+ $X2=0.24 $Y2=3.33
r272 142 167 0.133793 $w=4.9e-07 $l=4.8e-07 $layer=MET1_cond $X=5.52 $Y=3.33
+ $X2=6 $Y2=3.33
r273 142 162 0.267585 $w=4.9e-07 $l=9.6e-07 $layer=MET1_cond $X=5.52 $Y=3.33
+ $X2=4.56 $Y2=3.33
r274 142 190 4.65 $w=1.7e-07 $l=3.4e-07 $layer=mcon $count=2 $X=5.52 $Y=3.33
+ $X2=5.52 $Y2=3.33
r275 140 176 2.60963 $w=1.68e-07 $l=4e-08 $layer=LI1_cond $X=8.92 $Y=3.33
+ $X2=8.88 $Y2=3.33
r276 140 141 7.24004 $w=1.7e-07 $l=1.3e-07 $layer=LI1_cond $X=8.92 $Y=3.33
+ $X2=9.05 $Y2=3.33
r277 138 173 9.13369 $w=1.68e-07 $l=1.4e-07 $layer=LI1_cond $X=8.06 $Y=3.33
+ $X2=7.92 $Y2=3.33
r278 138 139 7.24004 $w=1.7e-07 $l=1.3e-07 $layer=LI1_cond $X=8.06 $Y=3.33
+ $X2=8.19 $Y2=3.33
r279 137 176 36.5348 $w=1.68e-07 $l=5.6e-07 $layer=LI1_cond $X=8.32 $Y=3.33
+ $X2=8.88 $Y2=3.33
r280 137 139 7.24004 $w=1.7e-07 $l=1.3e-07 $layer=LI1_cond $X=8.32 $Y=3.33
+ $X2=8.19 $Y2=3.33
r281 135 170 15.6578 $w=1.68e-07 $l=2.4e-07 $layer=LI1_cond $X=7.2 $Y=3.33
+ $X2=6.96 $Y2=3.33
r282 135 136 7.24004 $w=1.7e-07 $l=1.3e-07 $layer=LI1_cond $X=7.2 $Y=3.33
+ $X2=7.33 $Y2=3.33
r283 134 173 30.0107 $w=1.68e-07 $l=4.6e-07 $layer=LI1_cond $X=7.46 $Y=3.33
+ $X2=7.92 $Y2=3.33
r284 134 136 7.24004 $w=1.7e-07 $l=1.3e-07 $layer=LI1_cond $X=7.46 $Y=3.33
+ $X2=7.33 $Y2=3.33
r285 132 161 3.91444 $w=1.68e-07 $l=6e-08 $layer=LI1_cond $X=4.62 $Y=3.33
+ $X2=4.56 $Y2=3.33
r286 132 133 7.24004 $w=1.7e-07 $l=1.3e-07 $layer=LI1_cond $X=4.62 $Y=3.33
+ $X2=4.75 $Y2=3.33
r287 130 158 10.4385 $w=1.68e-07 $l=1.6e-07 $layer=LI1_cond $X=3.76 $Y=3.33
+ $X2=3.6 $Y2=3.33
r288 130 131 7.24004 $w=1.7e-07 $l=1.3e-07 $layer=LI1_cond $X=3.76 $Y=3.33
+ $X2=3.89 $Y2=3.33
r289 129 161 35.2299 $w=1.68e-07 $l=5.4e-07 $layer=LI1_cond $X=4.02 $Y=3.33
+ $X2=4.56 $Y2=3.33
r290 129 131 7.24004 $w=1.7e-07 $l=1.3e-07 $layer=LI1_cond $X=4.02 $Y=3.33
+ $X2=3.89 $Y2=3.33
r291 127 155 16.9626 $w=1.68e-07 $l=2.6e-07 $layer=LI1_cond $X=2.9 $Y=3.33
+ $X2=2.64 $Y2=3.33
r292 127 128 7.24004 $w=1.7e-07 $l=1.3e-07 $layer=LI1_cond $X=2.9 $Y=3.33
+ $X2=3.03 $Y2=3.33
r293 126 158 28.7059 $w=1.68e-07 $l=4.4e-07 $layer=LI1_cond $X=3.16 $Y=3.33
+ $X2=3.6 $Y2=3.33
r294 126 128 7.24004 $w=1.7e-07 $l=1.3e-07 $layer=LI1_cond $X=3.16 $Y=3.33
+ $X2=3.03 $Y2=3.33
r295 124 145 5.21925 $w=1.68e-07 $l=8e-08 $layer=LI1_cond $X=0.32 $Y=3.33
+ $X2=0.24 $Y2=3.33
r296 124 125 7.24004 $w=1.7e-07 $l=1.3e-07 $layer=LI1_cond $X=0.32 $Y=3.33
+ $X2=0.45 $Y2=3.33
r297 120 123 38.4148 $w=2.53e-07 $l=8.5e-07 $layer=LI1_cond $X=10.767 $Y=2.04
+ $X2=10.767 $Y2=2.89
r298 118 199 3.1676 $w=2.55e-07 $l=1.15888e-07 $layer=LI1_cond $X=10.767
+ $Y=3.245 $X2=10.84 $Y2=3.33
r299 118 123 16.0438 $w=2.53e-07 $l=3.55e-07 $layer=LI1_cond $X=10.767 $Y=3.245
+ $X2=10.767 $Y2=2.89
r300 114 117 37.676 $w=2.58e-07 $l=8.5e-07 $layer=LI1_cond $X=9.91 $Y=2.04
+ $X2=9.91 $Y2=2.89
r301 112 196 0.132371 $w=2.6e-07 $l=8.5e-08 $layer=LI1_cond $X=9.91 $Y=3.245
+ $X2=9.91 $Y2=3.33
r302 112 117 15.7353 $w=2.58e-07 $l=3.55e-07 $layer=LI1_cond $X=9.91 $Y=3.245
+ $X2=9.91 $Y2=2.89
r303 111 141 7.24004 $w=1.7e-07 $l=1.3e-07 $layer=LI1_cond $X=9.18 $Y=3.33
+ $X2=9.05 $Y2=3.33
r304 110 196 7.24004 $w=1.7e-07 $l=1.3e-07 $layer=LI1_cond $X=9.78 $Y=3.33
+ $X2=9.91 $Y2=3.33
r305 110 111 39.1444 $w=1.68e-07 $l=6e-07 $layer=LI1_cond $X=9.78 $Y=3.33
+ $X2=9.18 $Y2=3.33
r306 106 109 37.676 $w=2.58e-07 $l=8.5e-07 $layer=LI1_cond $X=9.05 $Y=2.04
+ $X2=9.05 $Y2=2.89
r307 104 141 0.132371 $w=2.6e-07 $l=8.5e-08 $layer=LI1_cond $X=9.05 $Y=3.245
+ $X2=9.05 $Y2=3.33
r308 104 109 15.7353 $w=2.58e-07 $l=3.55e-07 $layer=LI1_cond $X=9.05 $Y=3.245
+ $X2=9.05 $Y2=2.89
r309 100 103 37.676 $w=2.58e-07 $l=8.5e-07 $layer=LI1_cond $X=8.19 $Y=2.04
+ $X2=8.19 $Y2=2.89
r310 98 139 0.132371 $w=2.6e-07 $l=8.5e-08 $layer=LI1_cond $X=8.19 $Y=3.245
+ $X2=8.19 $Y2=3.33
r311 98 103 15.7353 $w=2.58e-07 $l=3.55e-07 $layer=LI1_cond $X=8.19 $Y=3.245
+ $X2=8.19 $Y2=2.89
r312 94 97 37.676 $w=2.58e-07 $l=8.5e-07 $layer=LI1_cond $X=7.33 $Y=2.04
+ $X2=7.33 $Y2=2.89
r313 92 136 0.132371 $w=2.6e-07 $l=8.5e-08 $layer=LI1_cond $X=7.33 $Y=3.245
+ $X2=7.33 $Y2=3.33
r314 92 97 15.7353 $w=2.58e-07 $l=3.55e-07 $layer=LI1_cond $X=7.33 $Y=3.245
+ $X2=7.33 $Y2=2.89
r315 88 91 37.676 $w=2.58e-07 $l=8.5e-07 $layer=LI1_cond $X=6.47 $Y=2.04
+ $X2=6.47 $Y2=2.89
r316 86 193 0.132371 $w=2.6e-07 $l=8.5e-08 $layer=LI1_cond $X=6.47 $Y=3.245
+ $X2=6.47 $Y2=3.33
r317 86 91 15.7353 $w=2.58e-07 $l=3.55e-07 $layer=LI1_cond $X=6.47 $Y=3.245
+ $X2=6.47 $Y2=2.89
r318 82 85 37.676 $w=2.58e-07 $l=8.5e-07 $layer=LI1_cond $X=5.61 $Y=2.04
+ $X2=5.61 $Y2=2.89
r319 80 190 0.132371 $w=2.6e-07 $l=8.5e-08 $layer=LI1_cond $X=5.61 $Y=3.245
+ $X2=5.61 $Y2=3.33
r320 80 85 15.7353 $w=2.58e-07 $l=3.55e-07 $layer=LI1_cond $X=5.61 $Y=3.245
+ $X2=5.61 $Y2=2.89
r321 79 133 7.24004 $w=1.7e-07 $l=1.3e-07 $layer=LI1_cond $X=4.88 $Y=3.33
+ $X2=4.75 $Y2=3.33
r322 78 190 7.24004 $w=1.7e-07 $l=1.3e-07 $layer=LI1_cond $X=5.48 $Y=3.33
+ $X2=5.61 $Y2=3.33
r323 78 79 39.1444 $w=1.68e-07 $l=6e-07 $layer=LI1_cond $X=5.48 $Y=3.33 $X2=4.88
+ $Y2=3.33
r324 74 77 37.676 $w=2.58e-07 $l=8.5e-07 $layer=LI1_cond $X=4.75 $Y=2.04
+ $X2=4.75 $Y2=2.89
r325 72 133 0.132371 $w=2.6e-07 $l=8.5e-08 $layer=LI1_cond $X=4.75 $Y=3.245
+ $X2=4.75 $Y2=3.33
r326 72 77 15.7353 $w=2.58e-07 $l=3.55e-07 $layer=LI1_cond $X=4.75 $Y=3.245
+ $X2=4.75 $Y2=2.89
r327 68 71 37.676 $w=2.58e-07 $l=8.5e-07 $layer=LI1_cond $X=3.89 $Y=2.04
+ $X2=3.89 $Y2=2.89
r328 66 131 0.132371 $w=2.6e-07 $l=8.5e-08 $layer=LI1_cond $X=3.89 $Y=3.245
+ $X2=3.89 $Y2=3.33
r329 66 71 15.7353 $w=2.58e-07 $l=3.55e-07 $layer=LI1_cond $X=3.89 $Y=3.245
+ $X2=3.89 $Y2=2.89
r330 62 65 37.676 $w=2.58e-07 $l=8.5e-07 $layer=LI1_cond $X=3.03 $Y=2.04
+ $X2=3.03 $Y2=2.89
r331 60 128 0.132371 $w=2.6e-07 $l=8.5e-08 $layer=LI1_cond $X=3.03 $Y=3.245
+ $X2=3.03 $Y2=3.33
r332 60 65 15.7353 $w=2.58e-07 $l=3.55e-07 $layer=LI1_cond $X=3.03 $Y=3.245
+ $X2=3.03 $Y2=2.89
r333 56 59 37.676 $w=2.58e-07 $l=8.5e-07 $layer=LI1_cond $X=2.17 $Y=2.04
+ $X2=2.17 $Y2=2.89
r334 54 187 0.132371 $w=2.6e-07 $l=8.5e-08 $layer=LI1_cond $X=2.17 $Y=3.245
+ $X2=2.17 $Y2=3.33
r335 54 59 15.7353 $w=2.58e-07 $l=3.55e-07 $layer=LI1_cond $X=2.17 $Y=3.245
+ $X2=2.17 $Y2=2.89
r336 50 53 37.676 $w=2.58e-07 $l=8.5e-07 $layer=LI1_cond $X=1.31 $Y=2.04
+ $X2=1.31 $Y2=2.89
r337 48 184 0.132371 $w=2.6e-07 $l=8.5e-08 $layer=LI1_cond $X=1.31 $Y=3.245
+ $X2=1.31 $Y2=3.33
r338 48 53 15.7353 $w=2.58e-07 $l=3.55e-07 $layer=LI1_cond $X=1.31 $Y=3.245
+ $X2=1.31 $Y2=2.89
r339 47 125 7.24004 $w=1.7e-07 $l=1.3e-07 $layer=LI1_cond $X=0.58 $Y=3.33
+ $X2=0.45 $Y2=3.33
r340 46 184 7.24004 $w=1.7e-07 $l=1.3e-07 $layer=LI1_cond $X=1.18 $Y=3.33
+ $X2=1.31 $Y2=3.33
r341 46 47 39.1444 $w=1.68e-07 $l=6e-07 $layer=LI1_cond $X=1.18 $Y=3.33 $X2=0.58
+ $Y2=3.33
r342 42 45 37.676 $w=2.58e-07 $l=8.5e-07 $layer=LI1_cond $X=0.45 $Y=2.04
+ $X2=0.45 $Y2=2.89
r343 40 125 0.132371 $w=2.6e-07 $l=8.5e-08 $layer=LI1_cond $X=0.45 $Y=3.245
+ $X2=0.45 $Y2=3.33
r344 40 45 15.7353 $w=2.58e-07 $l=3.55e-07 $layer=LI1_cond $X=0.45 $Y=3.245
+ $X2=0.45 $Y2=2.89
r345 13 123 400 $w=1.7e-07 $l=1.12282e-06 $layer=licon1_PDIFF $count=1 $X=10.63
+ $Y=1.835 $X2=10.77 $Y2=2.89
r346 13 120 400 $w=1.7e-07 $l=2.65942e-07 $layer=licon1_PDIFF $count=1 $X=10.63
+ $Y=1.835 $X2=10.77 $Y2=2.04
r347 12 117 400 $w=1.7e-07 $l=1.12282e-06 $layer=licon1_PDIFF $count=1 $X=9.77
+ $Y=1.835 $X2=9.91 $Y2=2.89
r348 12 114 400 $w=1.7e-07 $l=2.65942e-07 $layer=licon1_PDIFF $count=1 $X=9.77
+ $Y=1.835 $X2=9.91 $Y2=2.04
r349 11 109 400 $w=1.7e-07 $l=1.12282e-06 $layer=licon1_PDIFF $count=1 $X=8.91
+ $Y=1.835 $X2=9.05 $Y2=2.89
r350 11 106 400 $w=1.7e-07 $l=2.65942e-07 $layer=licon1_PDIFF $count=1 $X=8.91
+ $Y=1.835 $X2=9.05 $Y2=2.04
r351 10 103 400 $w=1.7e-07 $l=1.12282e-06 $layer=licon1_PDIFF $count=1 $X=8.05
+ $Y=1.835 $X2=8.19 $Y2=2.89
r352 10 100 400 $w=1.7e-07 $l=2.65942e-07 $layer=licon1_PDIFF $count=1 $X=8.05
+ $Y=1.835 $X2=8.19 $Y2=2.04
r353 9 97 400 $w=1.7e-07 $l=1.12282e-06 $layer=licon1_PDIFF $count=1 $X=7.19
+ $Y=1.835 $X2=7.33 $Y2=2.89
r354 9 94 400 $w=1.7e-07 $l=2.65942e-07 $layer=licon1_PDIFF $count=1 $X=7.19
+ $Y=1.835 $X2=7.33 $Y2=2.04
r355 8 91 400 $w=1.7e-07 $l=1.12282e-06 $layer=licon1_PDIFF $count=1 $X=6.33
+ $Y=1.835 $X2=6.47 $Y2=2.89
r356 8 88 400 $w=1.7e-07 $l=2.65942e-07 $layer=licon1_PDIFF $count=1 $X=6.33
+ $Y=1.835 $X2=6.47 $Y2=2.04
r357 7 85 400 $w=1.7e-07 $l=1.12282e-06 $layer=licon1_PDIFF $count=1 $X=5.47
+ $Y=1.835 $X2=5.61 $Y2=2.89
r358 7 82 400 $w=1.7e-07 $l=2.65942e-07 $layer=licon1_PDIFF $count=1 $X=5.47
+ $Y=1.835 $X2=5.61 $Y2=2.04
r359 6 77 400 $w=1.7e-07 $l=1.12282e-06 $layer=licon1_PDIFF $count=1 $X=4.61
+ $Y=1.835 $X2=4.75 $Y2=2.89
r360 6 74 400 $w=1.7e-07 $l=2.65942e-07 $layer=licon1_PDIFF $count=1 $X=4.61
+ $Y=1.835 $X2=4.75 $Y2=2.04
r361 5 71 400 $w=1.7e-07 $l=1.12282e-06 $layer=licon1_PDIFF $count=1 $X=3.75
+ $Y=1.835 $X2=3.89 $Y2=2.89
r362 5 68 400 $w=1.7e-07 $l=2.65942e-07 $layer=licon1_PDIFF $count=1 $X=3.75
+ $Y=1.835 $X2=3.89 $Y2=2.04
r363 4 65 400 $w=1.7e-07 $l=1.12282e-06 $layer=licon1_PDIFF $count=1 $X=2.89
+ $Y=1.835 $X2=3.03 $Y2=2.89
r364 4 62 400 $w=1.7e-07 $l=2.65942e-07 $layer=licon1_PDIFF $count=1 $X=2.89
+ $Y=1.835 $X2=3.03 $Y2=2.04
r365 3 59 400 $w=1.7e-07 $l=1.12282e-06 $layer=licon1_PDIFF $count=1 $X=2.03
+ $Y=1.835 $X2=2.17 $Y2=2.89
r366 3 56 400 $w=1.7e-07 $l=2.65942e-07 $layer=licon1_PDIFF $count=1 $X=2.03
+ $Y=1.835 $X2=2.17 $Y2=2.04
r367 2 53 400 $w=1.7e-07 $l=1.12282e-06 $layer=licon1_PDIFF $count=1 $X=1.17
+ $Y=1.835 $X2=1.31 $Y2=2.89
r368 2 50 400 $w=1.7e-07 $l=2.65942e-07 $layer=licon1_PDIFF $count=1 $X=1.17
+ $Y=1.835 $X2=1.31 $Y2=2.04
r369 1 45 400 $w=1.7e-07 $l=1.12517e-06 $layer=licon1_PDIFF $count=1 $X=0.305
+ $Y=1.835 $X2=0.45 $Y2=2.89
r370 1 42 400 $w=1.7e-07 $l=2.67862e-07 $layer=licon1_PDIFF $count=1 $X=0.305
+ $Y=1.835 $X2=0.45 $Y2=2.04
.ends

.subckt PM_SKY130_FD_SC_LP__CLKINV_16%Y 1 2 3 4 5 6 7 8 9 10 11 12 13 14 15 16
+ 17 18 19 20 63 65 67 70 78 86 96 106 116 123 133 143 153 163 171 172
r237 171 176 37.8976 $w=2.58e-07 $l=8.55e-07 $layer=LI1_cond $X=10.34 $Y=2.035
+ $X2=10.34 $Y2=2.89
r238 171 172 9.3 $w=1.7e-07 $l=1.7e-07 $layer=mcon $count=1 $X=10.34 $Y=2.035
+ $X2=10.34 $Y2=2.035
r239 164 172 0.55178 $w=2.3e-07 $l=8.6e-07 $layer=MET1_cond $X=9.48 $Y=2.035
+ $X2=10.34 $Y2=2.035
r240 163 168 38.6407 $w=2.53e-07 $l=8.55e-07 $layer=LI1_cond $X=9.482 $Y=2.035
+ $X2=9.482 $Y2=2.89
r241 163 164 9.3 $w=1.7e-07 $l=1.7e-07 $layer=mcon $count=1 $X=9.48 $Y=2.035